*SPEF "ieee 1481-1999"
*DESIGN "project1"
*DATE "16:46:56 Saturday April 26, 2025"
*VENDOR "The OpenROAD Project"
*PROGRAM "OpenROAD"
*VERSION "b16bda7e82721d10566ff7e2b68f1ff0be9f9e38"
*DESIGN_FLOW "NAME_SCOPE LOCAL" "PIN_CAP NONE"
*DIVIDER /
*DELIMITER :
*BUS_DELIMITER []
*T_UNIT 1 NS
*C_UNIT 1 PF
*R_UNIT 1 OHM
*L_UNIT 1 HENRY

*NAME_MAP
*3 in[0]
*4 in[1]
*5 in[2]
*6 in[3]
*7 in[4]
*8 in[5]
*9 in[6]
*10 in[7]
*11 out[0]
*12 out[1]
*13 out[2]
*14 out[3]
*15 out[4]
*16 out[5]
*17 out[6]
*18 out[7]
*19 _00_
*20 _01_
*21 _02_
*22 _03_
*23 _04_
*24 _05_
*25 _06_
*26 _07_
*27 _08_
*28 net1
*29 net10
*30 net11
*31 net12
*32 net13
*33 net14
*34 net15
*35 net16
*36 net2
*37 net3
*38 net4
*39 net5
*40 net6
*41 net7
*42 net8
*43 net9
*44 FILLER_0_0_10
*45 FILLER_0_0_22
*46 FILLER_0_0_29
*47 FILLER_0_0_37
*48 FILLER_0_10_18
*49 FILLER_0_10_26
*50 FILLER_0_10_29
*51 FILLER_0_10_41
*52 FILLER_0_10_6
*53 FILLER_0_11_18
*54 FILLER_0_11_30
*55 FILLER_0_11_38
*56 FILLER_0_11_46
*57 FILLER_0_11_6
*58 FILLER_0_12_13
*59 FILLER_0_12_25
*60 FILLER_0_12_29
*61 FILLER_0_12_37
*62 FILLER_0_1_15
*63 FILLER_0_1_27
*64 FILLER_0_1_3
*65 FILLER_0_1_47
*66 FILLER_0_2_18
*67 FILLER_0_2_26
*68 FILLER_0_2_29
*69 FILLER_0_2_41
*70 FILLER_0_2_47
*71 FILLER_0_2_6
*72 FILLER_0_3_17
*73 FILLER_0_3_3
*74 FILLER_0_3_36
*75 FILLER_0_4_15
*76 FILLER_0_4_29
*77 FILLER_0_4_3
*78 FILLER_0_4_37
*79 FILLER_0_4_45
*80 FILLER_0_5_13
*81 FILLER_0_5_19
*82 FILLER_0_5_27
*83 FILLER_0_5_39
*84 FILLER_0_5_43
*85 FILLER_0_6_13
*86 FILLER_0_6_3
*87 FILLER_0_6_36
*88 FILLER_0_7_15
*89 FILLER_0_7_3
*90 FILLER_0_7_34
*91 FILLER_0_7_40
*92 FILLER_0_8_18
*93 FILLER_0_8_26
*94 FILLER_0_8_29
*95 FILLER_0_8_41
*96 FILLER_0_8_6
*97 FILLER_0_9_15
*98 FILLER_0_9_23
*99 FILLER_0_9_27
*100 FILLER_0_9_3
*101 FILLER_0_9_36
*102 PHY_EDGE_ROW_0_Left_13
*103 PHY_EDGE_ROW_0_Right_0
*104 PHY_EDGE_ROW_10_Left_23
*105 PHY_EDGE_ROW_10_Right_10
*106 PHY_EDGE_ROW_11_Left_24
*107 PHY_EDGE_ROW_11_Right_11
*108 PHY_EDGE_ROW_12_Left_25
*109 PHY_EDGE_ROW_12_Right_12
*110 PHY_EDGE_ROW_1_Left_14
*111 PHY_EDGE_ROW_1_Right_1
*112 PHY_EDGE_ROW_2_Left_15
*113 PHY_EDGE_ROW_2_Right_2
*114 PHY_EDGE_ROW_3_Left_16
*115 PHY_EDGE_ROW_3_Right_3
*116 PHY_EDGE_ROW_4_Left_17
*117 PHY_EDGE_ROW_4_Right_4
*118 PHY_EDGE_ROW_5_Left_18
*119 PHY_EDGE_ROW_5_Right_5
*120 PHY_EDGE_ROW_6_Left_19
*121 PHY_EDGE_ROW_6_Right_6
*122 PHY_EDGE_ROW_7_Left_20
*123 PHY_EDGE_ROW_7_Right_7
*124 PHY_EDGE_ROW_8_Left_21
*125 PHY_EDGE_ROW_8_Right_8
*126 PHY_EDGE_ROW_9_Left_22
*127 PHY_EDGE_ROW_9_Right_9
*128 TAP_TAPCELL_ROW_0_26
*129 TAP_TAPCELL_ROW_10_31
*130 TAP_TAPCELL_ROW_12_32
*131 TAP_TAPCELL_ROW_2_27
*132 TAP_TAPCELL_ROW_4_28
*133 TAP_TAPCELL_ROW_6_29
*134 TAP_TAPCELL_ROW_8_30
*135 _09_
*136 _10_
*137 _11_
*138 _12_
*139 _13_
*140 _14_
*141 _15_
*142 _16_
*143 _17_
*144 _18_
*145 _19_
*146 _20_
*147 _21_
*148 _22_
*149 _23_
*150 _24_
*151 _25_
*152 input1
*153 input2
*154 input3
*155 input4
*156 input5
*157 input6
*158 input7
*159 input8
*160 output10
*161 output11
*162 output12
*163 output13
*164 output14
*165 output15
*166 output16
*167 output9

*PORTS
in[0] I
in[1] I
in[2] I
in[3] I
in[4] I
in[5] I
in[6] I
in[7] I
out[0] O
out[1] O
out[2] O
out[3] O
out[4] O
out[5] O
out[6] O
out[7] O

*D_NET *3 0.0014406
*CONN
*P in[0] I
*I *152:A I *D sky130_fd_sc_hd__buf_1
*CAP
1 in[0] 0.0007203
2 *152:A 0
3 *3:11 0.0007203
4 *3:11 *4:17 0
*RES
1 in[0] *3:11 33.9389 
2 *3:11 *152:A 23 
*END

*D_NET *4 0.000691237
*CONN
*P in[1] I
*I *153:A I *D sky130_fd_sc_hd__dlymetal6s2s_1
*CAP
1 in[1] 0.000345619
2 *153:A 0
3 *4:17 0.000345619
4 *4:17 *154:A 0
5 *3:11 *4:17 0
*RES
1 in[1] *4:17 27.1584 
2 *4:17 *153:A 23 
*END

*D_NET *5 0.000615123
*CONN
*P in[2] I
*I *154:A I *D sky130_fd_sc_hd__buf_1
*CAP
1 in[2] 0.000307562
2 *154:A 0.000307562
3 *154:A *6:17 0
4 *4:17 *154:A 0
*RES
1 in[2] *154:A 49.8062 
*END

*D_NET *6 0.000742726
*CONN
*P in[3] I
*I *155:A I *D sky130_fd_sc_hd__buf_1
*CAP
1 in[3] 0.000371363
2 *155:A 0
3 *6:17 0.000371363
4 *6:17 *156:A 0
5 *154:A *6:17 0
*RES
1 in[3] *6:17 28.2148 
2 *6:17 *155:A 23 
*END

*D_NET *7 0.000622368
*CONN
*P in[4] I
*I *156:A I *D sky130_fd_sc_hd__dlymetal6s2s_1
*CAP
1 in[4] 0.000311184
2 *156:A 0.000311184
3 *156:A *157:A 0
4 *6:17 *156:A 0
*RES
1 in[4] *156:A 49.8062 
*END

*D_NET *8 0.000603153
*CONN
*P in[5] I
*I *157:A I *D sky130_fd_sc_hd__buf_1
*CAP
1 in[5] 0.000301577
2 *157:A 0.000301577
3 *157:A *9:13 0
4 *156:A *157:A 0
*RES
1 in[5] *157:A 49.8062 
*END

*D_NET *9 0.000800619
*CONN
*P in[6] I
*I *158:A I *D sky130_fd_sc_hd__buf_1
*CAP
1 in[6] 0.000400309
2 *158:A 0
3 *9:13 0.000400309
4 *9:13 *10:11 0
5 *157:A *9:13 0
*RES
1 in[6] *9:13 28.7867 
2 *9:13 *158:A 23 
*END

*D_NET *10 0.00117453
*CONN
*P in[7] I
*I *159:A I *D sky130_fd_sc_hd__clkbuf_2
*CAP
1 in[7] 0.000587264
2 *159:A 0
3 *10:11 0.000587264
4 *9:13 *10:11 0
*RES
1 in[7] *10:11 31.5598 
2 *10:11 *159:A 23 
*END

*D_NET *11 0.00123536
*CONN
*P out[0] O
*I *167:X O *D sky130_fd_sc_hd__buf_2
*CAP
1 out[0] 0.00029892
2 *167:X 0.000318757
3 *11:8 0.000617678
4 out[0] out[1] 0
*RES
1 *167:X *11:8 44.6596 
2 *11:8 out[0] 9.10133 
*END

*D_NET *12 0.00046494
*CONN
*P out[1] O
*I *160:X O *D sky130_fd_sc_hd__buf_2
*CAP
1 out[1] 0.00023247
2 *160:X 0.00023247
3 out[1] out[2] 0
4 out[0] out[1] 0
*RES
1 *160:X out[1] 47.0789 
*END

*D_NET *13 0.000463691
*CONN
*P out[2] O
*I *161:X O *D sky130_fd_sc_hd__buf_2
*CAP
1 out[2] 0.000231846
2 *161:X 0.000231846
3 out[2] out[3] 0
4 out[2] *43:12 0
5 out[1] out[2] 0
*RES
1 *161:X out[2] 47.0789 
*END

*D_NET *14 0.000630749
*CONN
*P out[3] O
*I *162:X O *D sky130_fd_sc_hd__buf_2
*CAP
1 out[3] 0.000293745
2 *162:X 0.000293745
3 out[3] out[4] 0
4 out[3] *42:83 4.32584e-05
5 out[2] out[3] 0
*RES
1 *162:X out[3] 48.4875 
*END

*D_NET *15 0.000467688
*CONN
*P out[4] O
*I *163:X O *D sky130_fd_sc_hd__buf_2
*CAP
1 out[4] 0.000227473
2 *163:X 0.000227473
3 out[4] out[5] 0
4 out[4] *164:A 1.27424e-05
5 out[3] out[4] 0
*RES
1 *163:X out[4] 47.0789 
*END

*D_NET *16 0.000639202
*CONN
*P out[5] O
*I *164:X O *D sky130_fd_sc_hd__buf_2
*CAP
1 out[5] 0.000299219
2 *164:X 0.000299219
3 out[5] out[6] 0
4 out[5] *35:20 4.07627e-05
5 out[4] out[5] 0
*RES
1 *164:X out[5] 48.4875 
*END

*D_NET *17 0.00081608
*CONN
*P out[6] O
*I *165:X O *D sky130_fd_sc_hd__buf_2
*CAP
1 out[6] 0.00040804
2 *165:X 0.00040804
3 out[6] out[7] 0
4 out[5] out[6] 0
*RES
1 *165:X out[6] 47.5941 
*END

*D_NET *18 0.00110166
*CONN
*P out[7] O
*I *166:X O *D sky130_fd_sc_hd__clkbuf_4
*CAP
1 out[7] 0.000175108
2 *166:X 0.000375724
3 *18:8 0.000550832
4 out[6] out[7] 0
*RES
1 *166:X *18:8 45.7161 
2 *18:8 out[7] 8.672 
*END

*D_NET *19 0.00429754
*CONN
*I *136:B I *D sky130_fd_sc_hd__xnor2_1
*I *135:Y O *D sky130_fd_sc_hd__nand2_1
*CAP
1 *136:B 0
2 *135:Y 2.82214e-05
3 *19:16 0.000821031
4 *19:8 0.000849252
5 *19:8 *37:30 0.000187343
6 *19:8 *39:26 0.000189044
7 *19:16 *135:B 5.11935e-06
8 *19:16 *141:A 4.67488e-05
9 *19:16 *141:D 2.98648e-05
10 *19:16 *20:20 0.000516168
11 *19:16 *21:8 0.000297262
12 *19:16 *22:35 9.03364e-06
13 *19:16 *24:14 0.000260091
14 *19:16 *28:18 0.000128146
15 *19:16 *30:12 0.000208225
16 *19:16 *30:18 7.42278e-05
17 *19:16 *35:20 0
18 *19:16 *36:30 0.00017476
19 *19:16 *36:37 0.000123506
20 *19:16 *36:52 0.000267855
21 *19:16 *37:14 2.64616e-05
22 *19:16 *37:22 7.43025e-06
23 *19:16 *39:26 0
24 *19:16 *42:63 4.77461e-05
*RES
1 *135:Y *19:8 40.0507 
2 *19:8 *19:16 37.5993 
3 *19:16 *136:B 23 
*END

*D_NET *20 0.00519155
*CONN
*I *138:B I *D sky130_fd_sc_hd__xnor2_1
*I *137:Y O *D sky130_fd_sc_hd__o21ai_1
*CAP
1 *138:B 0
2 *137:Y 9.95901e-05
3 *20:20 0.000999229
4 *20:8 0.00109882
5 *20:8 *137:A2 3.22879e-05
6 *20:8 *28:8 9.88574e-06
7 *20:20 *143:A 9.58714e-05
8 *20:20 *22:24 0.000457416
9 *20:20 *24:14 0.000579771
10 *20:20 *28:12 0.000805221
11 *20:20 *28:18 0.000160115
12 *20:20 *30:12 0.000125581
13 *20:20 *43:12 0.000211599
14 *19:16 *20:20 0.000516168
*RES
1 *137:Y *20:8 39.5743 
2 *20:8 *20:20 43.7721 
3 *20:20 *138:B 23 
*END

*D_NET *21 0.00291812
*CONN
*I *140:B I *D sky130_fd_sc_hd__xor2_1
*I *139:X O *D sky130_fd_sc_hd__o31a_1
*CAP
1 *140:B 0.000383178
2 *139:X 0.000283298
3 *21:8 0.000666476
4 *140:B *163:A 2.64616e-05
5 *140:B *31:8 0.000310359
6 *140:B *39:8 4.94192e-05
7 *21:8 *28:31 0.000126466
8 *21:8 *30:12 0.000139657
9 *21:8 *32:8 0.000114083
10 *21:8 *34:26 0.000130613
11 *21:8 *42:40 0.000379403
12 *21:8 *42:63 1.14452e-05
13 *19:16 *21:8 0.000297262
*RES
1 *139:X *21:8 48.005 
2 *21:8 *140:B 44.8357 
*END

*D_NET *22 0.00996665
*CONN
*I *146:A3 I *D sky130_fd_sc_hd__o31a_1
*I *149:B_N I *D sky130_fd_sc_hd__and4bb_1
*I *144:A2 I *D sky130_fd_sc_hd__o21ai_1
*I *142:B I *D sky130_fd_sc_hd__nand2_1
*I *141:X O *D sky130_fd_sc_hd__or4_2
*CAP
1 *146:A3 0
2 *149:B_N 0
3 *144:A2 0.000214494
4 *142:B 0
5 *141:X 5.10823e-05
6 *22:58 0.000448103
7 *22:50 0.000611728
8 *22:35 0.000863204
9 *22:24 0.000573931
10 *22:14 0.000846594
11 *22:6 0.000808831
12 *144:A2 *144:B1 5.50049e-05
13 *144:A2 *24:8 2.64616e-05
14 *144:A2 *35:20 0.000352538
15 *144:A2 *36:52 0.000395764
16 *144:A2 *39:26 3.34247e-05
17 *22:6 *141:A 6.17437e-06
18 *22:6 *28:18 2.02872e-05
19 *22:14 *28:31 5.884e-05
20 *22:14 *30:18 0.000209207
21 *22:14 *31:14 7.26392e-05
22 *22:14 *33:8 0.000175903
23 *22:24 *142:A 3.57716e-05
24 *22:24 *23:8 0.000261951
25 *22:24 *24:14 5.94125e-05
26 *22:24 *39:59 0.000308039
27 *22:24 *42:83 0
28 *22:24 *42:87 5.06875e-05
29 *22:24 *43:12 0.000324751
30 *22:35 *28:18 4.96303e-05
31 *22:35 *36:52 0.000591877
32 *22:35 *42:83 0.000568598
33 *22:50 *35:14 0.000200562
34 *22:50 *42:29 5.3304e-05
35 *22:50 *42:36 4.08664e-05
36 *22:50 *42:83 0.000292249
37 *22:58 *25:8 0.00035673
38 *22:58 *28:31 5.79489e-05
39 *22:58 *40:19 5.79489e-05
40 *22:58 *42:29 0.000365667
41 *19:16 *22:35 9.03364e-06
42 *20:20 *22:24 0.000457416
*RES
1 *141:X *22:6 23.6214 
2 *22:6 *22:14 35.0129 
3 *22:14 *22:24 44.2721 
4 *22:24 *142:B 23 
5 *22:6 *22:35 26.3721 
6 *22:35 *144:A2 45.0014 
7 *22:35 *22:50 19.4329 
8 *22:50 *22:58 39.57 
9 *22:58 *149:B_N 23 
10 *22:50 *146:A3 23 
*END

*D_NET *23 0.00344673
*CONN
*I *143:B I *D sky130_fd_sc_hd__xnor2_1
*I *142:Y O *D sky130_fd_sc_hd__nand2_1
*CAP
1 *143:B 0
2 *142:Y 0.000222489
3 *23:12 0.00041319
4 *23:8 0.000635679
5 *23:12 *148:B 0.000345555
6 *23:12 *37:14 0.000585438
7 *23:12 *39:12 0.000243596
8 *23:12 *39:59 0.000111084
9 *23:12 *40:19 0.000627754
10 *22:24 *23:8 0.000261951
*RES
1 *142:Y *23:8 41.0036 
2 *23:8 *23:12 28.1743 
3 *23:12 *143:B 23 
*END

*D_NET *24 0.00430246
*CONN
*I *145:B I *D sky130_fd_sc_hd__xnor2_1
*I *144:Y O *D sky130_fd_sc_hd__o21ai_1
*CAP
1 *145:B 0
2 *144:Y 0.00012387
3 *24:14 0.000696582
4 *24:8 0.000820452
5 *24:8 *144:B1 1.22822e-05
6 *24:8 *42:63 5.50049e-05
7 *24:14 *145:A 9.41704e-05
8 *24:14 *33:8 0.000303724
9 *24:14 *34:26 0.000146159
10 *24:14 *36:52 0.00107145
11 *24:14 *42:83 3.71198e-05
12 *24:14 *43:8 1.59094e-05
13 *144:A2 *24:8 2.64616e-05
14 *19:16 *24:14 0.000260091
15 *20:20 *24:14 0.000579771
16 *22:24 *24:14 5.94125e-05
*RES
1 *144:Y *24:8 39.5743 
2 *24:8 *24:14 35.9007 
3 *24:14 *145:B 23 
*END

*D_NET *25 0.00270579
*CONN
*I *147:B I *D sky130_fd_sc_hd__xor2_1
*I *146:X O *D sky130_fd_sc_hd__o31a_1
*CAP
1 *147:B 0
2 *146:X 5.97063e-05
3 *25:16 0.000732265
4 *25:8 0.000791972
5 *25:8 *42:29 0.000358425
6 *25:16 *140:A 0.000167209
7 *25:16 *37:22 0.000119725
8 *25:16 *37:30 9.63918e-05
9 *25:16 *38:10 2.33661e-05
10 *22:58 *25:8 0.00035673
*RES
1 *146:X *25:8 41.9564 
2 *25:8 *25:16 29.6036 
3 *25:16 *147:B 23 
*END

*D_NET *26 0.00564725
*CONN
*I *149:C I *D sky130_fd_sc_hd__and4bb_1
*I *148:Y O *D sky130_fd_sc_hd__nor2_1
*CAP
1 *149:C 0
2 *148:Y 0.000110585
3 *26:26 0.00247768
4 *26:12 0.00258827
5 *26:12 *148:B 7.20154e-05
6 *26:12 *30:18 1.95789e-05
7 *26:26 *147:A 9.4798e-06
8 *26:26 *34:26 0.000369644
*RES
1 *148:Y *26:12 47.1243 
2 *26:12 *26:26 44.1576 
3 *26:26 *149:C 23 
*END

*D_NET *27 0.000212883
*CONN
*I *150:A I *D sky130_fd_sc_hd__clkbuf_1
*I *149:X O *D sky130_fd_sc_hd__and4bb_1
*CAP
1 *150:A 7.8936e-05
2 *149:X 7.8936e-05
3 *150:A *42:14 5.50106e-05
*RES
1 *149:X *150:A 47.5743 
*END

*D_NET *28 0.00868524
*CONN
*I *137:A1 I *D sky130_fd_sc_hd__o21ai_1
*I *151:A I *D sky130_fd_sc_hd__clkbuf_1
*I *139:A1 I *D sky130_fd_sc_hd__o31a_1
*I *135:A I *D sky130_fd_sc_hd__nand2_1
*I *141:A I *D sky130_fd_sc_hd__or4_2
*I *152:X O *D sky130_fd_sc_hd__buf_1
*CAP
1 *137:A1 0
2 *151:A 0
3 *139:A1 0.000125531
4 *135:A 2.06011e-05
5 *141:A 7.26184e-05
6 *152:X 0.00118648
7 *28:31 0.000605515
8 *28:18 0.000724151
9 *28:12 0.000469427
10 *28:8 0.00146376
11 *135:A *37:30 5.67058e-05
12 *139:A1 *144:B1 4.00259e-06
13 *139:A1 *37:30 9.59763e-05
14 *139:A1 *42:63 7.04374e-05
15 *28:8 *137:A2 0.000103647
16 *28:8 *36:20 7.59794e-05
17 *28:12 *30:18 0.000608672
18 *28:12 *36:20 0
19 *28:12 *42:102 7.4878e-05
20 *28:12 *43:12 1.94522e-05
21 *28:18 *30:18 0.000235792
22 *28:31 *135:B 2.24608e-05
23 *28:31 *30:12 9.03415e-07
24 *28:31 *30:18 5.83563e-05
25 *28:31 *31:14 0.0002193
26 *28:31 *32:8 0.000168754
27 *28:31 *39:26 9.43198e-05
28 *28:31 *40:10 4.98765e-05
29 *28:31 *40:19 0.000181028
30 *28:31 *42:40 0.000407151
31 *19:16 *141:A 4.67488e-05
32 *19:16 *28:18 0.000128146
33 *20:8 *28:8 9.88574e-06
34 *20:20 *28:12 0.000805221
35 *20:20 *28:18 0.000160115
36 *21:8 *28:31 0.000126466
37 *22:6 *141:A 6.17437e-06
38 *22:6 *28:18 2.02872e-05
39 *22:14 *28:31 5.884e-05
40 *22:35 *28:18 4.96303e-05
41 *22:58 *28:31 5.79489e-05
*RES
1 *152:X *28:8 39.24 
2 *28:8 *28:12 26.4136 
3 *28:12 *28:18 19.8886 
4 *28:18 *141:A 24.0979 
5 *28:18 *28:31 43.8786 
6 *28:31 *135:A 23.6214 
7 *28:31 *139:A1 26.045 
8 *28:12 *151:A 38 
9 *28:8 *137:A1 23 
*END

*D_NET *29 0.0032199
*CONN
*I *160:A I *D sky130_fd_sc_hd__buf_2
*I *136:Y O *D sky130_fd_sc_hd__xnor2_1
*CAP
1 *160:A 0
2 *136:Y 0
3 *29:14 0.00125148
4 *29:6 0.00125148
5 *29:14 *36:6 0.000270682
6 *29:14 *36:12 0
7 *29:14 *36:20 0.000152963
8 *29:14 *36:30 1.14452e-05
9 *29:14 *38:10 0
10 *29:14 *39:59 0.000281852
*RES
1 *136:Y *29:6 38 
2 *29:6 *29:14 39.8571 
3 *29:14 *160:A 23 
*END

*D_NET *30 0.00417985
*CONN
*I *161:A I *D sky130_fd_sc_hd__buf_2
*I *138:Y O *D sky130_fd_sc_hd__xnor2_1
*CAP
1 *161:A 0
2 *138:Y 0.000404167
3 *30:18 0.000723785
4 *30:12 0.00112795
5 *30:12 *143:A 4.67488e-05
6 *30:12 *32:8 2.60152e-05
7 *30:18 *148:B 0
8 *30:18 *31:14 8.58383e-05
9 *30:18 *37:14 0
10 *30:18 *42:102 8.51432e-05
11 *19:16 *30:12 0.000208225
12 *19:16 *30:18 7.42278e-05
13 *20:20 *30:12 0.000125581
14 *21:8 *30:12 0.000139657
15 *22:14 *30:18 0.000209207
16 *26:12 *30:18 1.95789e-05
17 *28:12 *30:18 0.000608672
18 *28:18 *30:18 0.000235792
19 *28:31 *30:12 9.03415e-07
20 *28:31 *30:18 5.83563e-05
*RES
1 *138:Y *30:12 46.3168 
2 *30:12 *30:18 32.6589 
3 *30:18 *161:A 23 
*END

*D_NET *31 0.00294683
*CONN
*I *162:A I *D sky130_fd_sc_hd__buf_2
*I *140:X O *D sky130_fd_sc_hd__xor2_1
*CAP
1 *162:A 0
2 *140:X 0.000117904
3 *31:14 0.000635934
4 *31:8 0.000753839
5 *31:8 *39:8 0.000103637
6 *31:14 *148:B 0.000197479
7 *31:14 *40:19 0.000449902
8 *140:B *31:8 0.000310359
9 *22:14 *31:14 7.26392e-05
10 *28:31 *31:14 0.0002193
11 *30:18 *31:14 8.58383e-05
*RES
1 *140:X *31:8 41.48 
2 *31:8 *31:14 28.9821 
3 *31:14 *162:A 23 
*END

*D_NET *32 0.00115689
*CONN
*I *163:A I *D sky130_fd_sc_hd__buf_2
*I *143:Y O *D sky130_fd_sc_hd__xnor2_1
*CAP
1 *163:A 0.000351365
2 *143:Y 5.9421e-05
3 *32:8 0.000410786
4 *140:B *163:A 2.64616e-05
5 *21:8 *32:8 0.000114083
6 *28:31 *32:8 0.000168754
7 *30:12 *32:8 2.60152e-05
*RES
1 *143:Y *32:8 40.2579 
2 *32:8 *163:A 42.4329 
*END

*D_NET *33 0.00265472
*CONN
*I *164:A I *D sky130_fd_sc_hd__buf_2
*I *145:Y O *D sky130_fd_sc_hd__xnor2_1
*CAP
1 *164:A 0.000387088
2 *145:Y 0.00028786
3 *33:8 0.000674949
4 *164:A *42:83 0.000812454
5 out[4] *164:A 1.27424e-05
6 *22:14 *33:8 0.000175903
7 *24:14 *33:8 0.000303724
*RES
1 *145:Y *33:8 43.3857 
2 *33:8 *164:A 48.7093 
*END

*D_NET *34 0.00553138
*CONN
*I *165:A I *D sky130_fd_sc_hd__buf_2
*I *147:X O *D sky130_fd_sc_hd__xor2_1
*CAP
1 *165:A 0
2 *147:X 0.00110296
3 *34:26 0.00133952
4 *34:12 0.00244248
5 *34:12 *38:10 0
6 *34:26 *35:20 0
7 *21:8 *34:26 0.000130613
8 *24:14 *34:26 0.000146159
9 *26:26 *34:26 0.000369644
*RES
1 *147:X *34:12 48.8329 
2 *34:12 *34:26 42.8335 
3 *34:26 *165:A 23 
*END

*D_NET *35 0.00465726
*CONN
*I *166:A I *D sky130_fd_sc_hd__clkbuf_4
*I *150:X O *D sky130_fd_sc_hd__clkbuf_1
*CAP
1 *166:A 0
2 *150:X 0.00125561
3 *35:20 0.000367038
4 *35:14 0.00162264
5 *35:14 *149:A_N 0.000318737
6 *35:14 *42:14 4.5051e-05
7 *35:14 *42:29 0.000442126
8 *35:14 *42:83 1.21972e-05
9 out[5] *35:20 4.07627e-05
10 *144:A2 *35:20 0.000352538
11 *19:16 *35:20 0
12 *22:50 *35:14 0.000200562
13 *34:26 *35:20 0
*RES
1 *150:X *35:14 42.0571 
2 *35:14 *35:20 37.8921 
3 *35:20 *166:A 23 
*END

*D_NET *36 0.00982557
*CONN
*I *137:A2 I *D sky130_fd_sc_hd__o21ai_1
*I *139:A2 I *D sky130_fd_sc_hd__o31a_1
*I *141:B I *D sky130_fd_sc_hd__or4_2
*I *136:A I *D sky130_fd_sc_hd__xnor2_1
*I *153:X O *D sky130_fd_sc_hd__dlymetal6s2s_1
*CAP
1 *137:A2 6.67676e-05
2 *139:A2 1.08768e-05
3 *141:B 0
4 *136:A 0
5 *153:X 0.000645901
6 *36:52 0.000771182
7 *36:37 0.000881856
8 *36:30 0.000171341
9 *36:20 0.000760207
10 *36:12 0.00069835
11 *36:6 0.000810168
12 *139:A2 *37:30 5.67058e-05
13 *139:A2 *42:63 5.50049e-05
14 *36:12 *43:12 0
15 *36:20 *37:14 0.000716414
16 *36:20 *39:59 0.000565419
17 *36:20 *42:102 0
18 *36:30 *141:D 0.000187129
19 *36:30 *38:10 0
20 *36:30 *39:59 8.57444e-05
21 *36:52 *42:83 7.02841e-05
22 *144:A2 *36:52 0.000395764
23 *19:16 *36:30 0.00017476
24 *19:16 *36:37 0.000123506
25 *19:16 *36:52 0.000267855
26 *20:8 *137:A2 3.22879e-05
27 *22:35 *36:52 0.000591877
28 *24:14 *36:52 0.00107145
29 *28:8 *137:A2 0.000103647
30 *28:8 *36:20 7.59794e-05
31 *28:12 *36:20 0
32 *29:14 *36:6 0.000270682
33 *29:14 *36:12 0
34 *29:14 *36:20 0.000152963
35 *29:14 *36:30 1.14452e-05
*RES
1 *153:X *36:6 35.5321 
2 *36:6 *36:12 32.61 
3 *36:12 *36:20 45.1007 
4 *36:20 *36:30 34.35 
5 *36:30 *136:A 23 
6 *36:20 *36:37 1.57429 
7 *36:37 *141:B 23 
8 *36:37 *36:52 35.1343 
9 *36:52 *139:A2 38.6214 
10 *36:12 *137:A2 25.0507 
*END

*D_NET *37 0.00794226
*CONN
*I *141:C I *D sky130_fd_sc_hd__or4_2
*I *138:A I *D sky130_fd_sc_hd__xnor2_1
*I *139:A3 I *D sky130_fd_sc_hd__o31a_1
*I *154:X O *D sky130_fd_sc_hd__buf_1
*CAP
1 *141:C 0
2 *138:A 0
3 *139:A3 0
4 *154:X 0.00096127
5 *37:30 0.000833019
6 *37:22 0.00137928
7 *37:14 0.00088897
8 *37:6 0.00130398
9 *37:14 *148:B 3.62323e-05
10 *37:14 *39:59 3.75026e-05
11 *37:14 *42:102 0
12 *37:22 *140:A 0.000140958
13 *37:22 *141:D 0.000269781
14 *37:22 *39:12 0
15 *37:22 *39:18 0
16 *37:22 *39:59 0
17 *37:30 *144:B1 1.14154e-05
18 *37:30 *39:18 0
19 *37:30 *39:26 0.000120867
20 *37:30 *42:63 1.03955e-05
21 *135:A *37:30 5.67058e-05
22 *139:A1 *37:30 9.59763e-05
23 *139:A2 *37:30 5.67058e-05
24 *19:8 *37:30 0.000187343
25 *19:16 *37:14 2.64616e-05
26 *19:16 *37:22 7.43025e-06
27 *23:12 *37:14 0.000585438
28 *25:16 *37:22 0.000119725
29 *25:16 *37:30 9.63918e-05
30 *30:18 *37:14 0
31 *36:20 *37:14 0.000716414
*RES
1 *154:X *37:6 35.0557 
2 *37:6 *37:14 41.3307 
3 *37:14 *37:22 24.8807 
4 *37:22 *37:30 32.3379 
5 *37:30 *139:A3 23 
6 *37:22 *138:A 38 
7 *37:14 *141:C 23 
*END

*D_NET *38 0.00303072
*CONN
*I *141:D I *D sky130_fd_sc_hd__or4_2
*I *140:A I *D sky130_fd_sc_hd__xor2_1
*I *155:X O *D sky130_fd_sc_hd__buf_1
*CAP
1 *141:D 9.54453e-05
2 *140:A 6.63393e-05
3 *155:X 0.000651649
4 *38:10 0.000454559
5 *38:8 0.000944424
6 *140:A *39:59 0
7 *19:16 *141:D 2.98648e-05
8 *25:16 *140:A 0.000167209
9 *25:16 *38:10 2.33661e-05
10 *29:14 *38:10 0
11 *34:12 *38:10 0
12 *36:30 *141:D 0.000187129
13 *36:30 *38:10 0
14 *37:22 *140:A 0.000140958
15 *37:22 *141:D 0.000269781
*RES
1 *155:X *38:8 46.2443 
2 *38:8 *38:10 5.42714 
3 *38:10 *140:A 40.2579 
4 *38:10 *141:D 41.48 
*END

*D_NET *39 0.00807086
*CONN
*I *148:A I *D sky130_fd_sc_hd__nor2_1
*I *143:A I *D sky130_fd_sc_hd__xnor2_1
*I *146:A1 I *D sky130_fd_sc_hd__o31a_1
*I *144:A1 I *D sky130_fd_sc_hd__o21ai_1
*I *156:X O *D sky130_fd_sc_hd__dlymetal6s2s_1
*CAP
1 *148:A 0
2 *143:A 4.48441e-05
3 *146:A1 0
4 *144:A1 0
5 *156:X 0.000735581
6 *39:59 0.000600441
7 *39:26 0.000869556
8 *39:18 0.00102005
9 *39:12 0.00034342
10 *39:10 0.000748524
11 *39:8 0.000735581
12 *39:12 *40:19 1.22906e-05
13 *39:18 *40:19 0.000184464
14 *39:26 *144:B1 5.41288e-05
15 *39:26 *40:10 0.000107212
16 *39:26 *40:19 4.8804e-05
17 *39:26 *42:63 9.24795e-06
18 *39:59 *142:A 0.000110379
19 *39:59 *148:B 5.50106e-05
20 *39:59 *42:87 2.4754e-05
21 *140:A *39:59 0
22 *140:B *39:8 4.94192e-05
23 *144:A2 *39:26 3.34247e-05
24 *19:8 *39:26 0.000189044
25 *19:16 *39:26 0
26 *20:20 *143:A 9.58714e-05
27 *22:24 *39:59 0.000308039
28 *23:12 *39:12 0.000243596
29 *23:12 *39:59 0.000111084
30 *28:31 *39:26 9.43198e-05
31 *29:14 *39:59 0.000281852
32 *30:12 *143:A 4.67488e-05
33 *31:8 *39:8 0.000103637
34 *36:20 *39:59 0.000565419
35 *36:30 *39:59 8.57444e-05
36 *37:14 *39:59 3.75026e-05
37 *37:22 *39:12 0
38 *37:22 *39:18 0
39 *37:22 *39:59 0
40 *37:30 *39:18 0
41 *37:30 *39:26 0.000120867
*RES
1 *156:X *39:8 35.0764 
2 *39:8 *39:10 15 
3 *39:10 *39:12 3.66643 
4 *39:12 *39:18 3.37643 
5 *39:18 *39:26 30.3286 
6 *39:26 *144:A1 23 
7 *39:18 *146:A1 38 
8 *39:12 *143:A 39.0979 
9 *39:10 *39:59 30.9293 
10 *39:59 *148:A 23 
*END

*D_NET *40 0.00620551
*CONN
*I *148:B I *D sky130_fd_sc_hd__nor2_1
*I *145:A I *D sky130_fd_sc_hd__xnor2_1
*I *146:A2 I *D sky130_fd_sc_hd__o31a_1
*I *157:X O *D sky130_fd_sc_hd__buf_1
*CAP
1 *148:B 0.000193988
2 *145:A 0.0001066
3 *146:A2 0
4 *157:X 0.00103672
5 *40:19 0.000710229
6 *40:10 0.00047807
7 *40:6 0.00110515
8 *148:B *142:A 5.50106e-05
9 *22:58 *40:19 5.79489e-05
10 *23:12 *148:B 0.000345555
11 *23:12 *40:19 0.000627754
12 *24:14 *145:A 9.41704e-05
13 *26:12 *148:B 7.20154e-05
14 *28:31 *40:10 4.98765e-05
15 *28:31 *40:19 0.000181028
16 *30:18 *148:B 0
17 *31:14 *148:B 0.000197479
18 *31:14 *40:19 0.000449902
19 *37:14 *148:B 3.62323e-05
20 *39:12 *40:19 1.22906e-05
21 *39:18 *40:19 0.000184464
22 *39:26 *40:10 0.000107212
23 *39:26 *40:19 4.8804e-05
24 *39:59 *148:B 5.50106e-05
*RES
1 *157:X *40:6 36.0086 
2 *40:6 *40:10 16.5536 
3 *40:10 *146:A2 38 
4 *40:10 *40:19 12.1179 
5 *40:19 *145:A 39.5743 
6 *40:19 *148:B 44.4007 
*END

*D_NET *41 0.00264022
*CONN
*I *147:A I *D sky130_fd_sc_hd__xor2_1
*I *149:A_N I *D sky130_fd_sc_hd__and4bb_1
*I *158:X O *D sky130_fd_sc_hd__buf_1
*CAP
1 *147:A 0.00048884
2 *149:A_N 6.13467e-05
3 *158:X 0.000361145
4 *41:10 0.000911331
5 *147:A *42:8 1.22803e-05
6 *149:A_N *42:14 5.56356e-05
7 *149:A_N *42:29 0.000148249
8 *41:10 *42:8 0.000273172
9 *26:26 *147:A 9.4798e-06
10 *35:14 *149:A_N 0.000318737
*RES
1 *158:X *41:10 45.8093 
2 *41:10 *149:A_N 41.48 
3 *41:10 *147:A 46.9486 
*END

*D_NET *42 0.0109775
*CONN
*I *137:B1 I *D sky130_fd_sc_hd__o21ai_1
*I *142:A I *D sky130_fd_sc_hd__nand2_1
*I *139:B1 I *D sky130_fd_sc_hd__o31a_1
*I *144:B1 I *D sky130_fd_sc_hd__o21ai_1
*I *135:B I *D sky130_fd_sc_hd__nand2_1
*I *146:B1 I *D sky130_fd_sc_hd__o31a_1
*I *149:D I *D sky130_fd_sc_hd__and4bb_1
*I *159:X O *D sky130_fd_sc_hd__clkbuf_2
*CAP
1 *137:B1 0
2 *142:A 0.000247712
3 *139:B1 0
4 *144:B1 4.68845e-05
5 *135:B 9.21359e-06
6 *146:B1 0
7 *149:D 0
8 *159:X 0.000340767
9 *42:102 0.000212822
10 *42:87 0.000762285
11 *42:83 0.00104486
12 *42:63 0.000282658
13 *42:40 0.000375899
14 *42:36 0.000909314
15 *42:29 0.000403263
16 *42:14 0.000450481
17 *42:8 0.000423282
18 *42:83 *43:12 0.000135252
19 out[3] *42:83 4.32584e-05
20 *139:A1 *144:B1 4.00259e-06
21 *139:A1 *42:63 7.04374e-05
22 *139:A2 *42:63 5.50049e-05
23 *144:A2 *144:B1 5.50049e-05
24 *147:A *42:8 1.22803e-05
25 *148:B *142:A 5.50106e-05
26 *149:A_N *42:14 5.56356e-05
27 *149:A_N *42:29 0.000148249
28 *150:A *42:14 5.50106e-05
29 *164:A *42:83 0.000812454
30 *19:16 *135:B 5.11935e-06
31 *19:16 *42:63 4.77461e-05
32 *21:8 *42:40 0.000379403
33 *21:8 *42:63 1.14452e-05
34 *22:24 *142:A 3.57716e-05
35 *22:24 *42:83 0
36 *22:24 *42:87 5.06875e-05
37 *22:35 *42:83 0.000568598
38 *22:50 *42:29 5.3304e-05
39 *22:50 *42:36 4.08664e-05
40 *22:50 *42:83 0.000292249
41 *22:58 *42:29 0.000365667
42 *24:8 *144:B1 1.22822e-05
43 *24:8 *42:63 5.50049e-05
44 *24:14 *42:83 3.71198e-05
45 *25:8 *42:29 0.000358425
46 *28:12 *42:102 7.4878e-05
47 *28:31 *135:B 2.24608e-05
48 *28:31 *42:40 0.000407151
49 *30:18 *42:102 8.51432e-05
50 *35:14 *42:14 4.5051e-05
51 *35:14 *42:29 0.000442126
52 *35:14 *42:83 1.21972e-05
53 *36:20 *42:102 0
54 *36:52 *42:83 7.02841e-05
55 *37:14 *42:102 0
56 *37:30 *144:B1 1.14154e-05
57 *37:30 *42:63 1.03955e-05
58 *39:26 *144:B1 5.41288e-05
59 *39:26 *42:63 9.24795e-06
60 *39:59 *142:A 0.000110379
61 *39:59 *42:87 2.4754e-05
62 *41:10 *42:8 0.000273172
*RES
1 *159:X *42:8 45.8921 
2 *42:8 *42:14 17.0714 
3 *42:14 *149:D 23 
4 *42:14 *42:29 13.34 
5 *42:29 *146:B1 23 
6 *42:29 *42:36 0.621429 
7 *42:36 *42:40 20.6032 
8 *42:40 *135:B 38.3211 
9 *42:40 *42:63 19.9611 
10 *42:63 *144:B1 24.595 
11 *42:63 *139:B1 23 
12 *42:36 *42:83 36.3564 
13 *42:83 *42:87 19.4329 
14 *42:87 *142:A 27.4536 
15 *42:87 *42:102 35.075 
16 *42:102 *137:B1 23 
*END

*D_NET *43 0.00188292
*CONN
*I *167:A I *D sky130_fd_sc_hd__buf_2
*I *151:X O *D sky130_fd_sc_hd__clkbuf_1
*CAP
1 *167:A 0
2 *151:X 5.67095e-05
3 *43:12 0.000531269
4 *43:8 0.000587979
5 out[2] *43:12 0
6 *20:20 *43:12 0.000211599
7 *22:24 *43:12 0.000324751
8 *24:14 *43:8 1.59094e-05
9 *28:12 *43:12 1.94522e-05
10 *36:12 *43:12 0
11 *42:83 *43:12 0.000135252
*RES
1 *151:X *43:8 38.6214 
2 *43:8 *43:12 28.1743 
3 *43:12 *167:A 23 
*END
