*SPEF "ieee 1481-1999"
*DESIGN "project1"
*DATE "16:46:54 Saturday April 26, 2025"
*VENDOR "The OpenROAD Project"
*PROGRAM "OpenROAD"
*VERSION "b16bda7e82721d10566ff7e2b68f1ff0be9f9e38"
*DESIGN_FLOW "NAME_SCOPE LOCAL" "PIN_CAP NONE"
*DIVIDER /
*DELIMITER :
*BUS_DELIMITER []
*T_UNIT 1 NS
*C_UNIT 1 PF
*R_UNIT 1 OHM
*L_UNIT 1 HENRY

*NAME_MAP
*3 in[0]
*4 in[1]
*5 in[2]
*6 in[3]
*7 in[4]
*8 in[5]
*9 in[6]
*10 in[7]
*11 out[0]
*12 out[1]
*13 out[2]
*14 out[3]
*15 out[4]
*16 out[5]
*17 out[6]
*18 out[7]
*19 _00_
*20 _01_
*21 _02_
*22 _03_
*23 _04_
*24 _05_
*25 _06_
*26 _07_
*27 _08_
*28 net1
*29 net10
*30 net11
*31 net12
*32 net13
*33 net14
*34 net15
*35 net16
*36 net2
*37 net3
*38 net4
*39 net5
*40 net6
*41 net7
*42 net8
*43 net9
*44 FILLER_0_0_10
*45 FILLER_0_0_22
*46 FILLER_0_0_29
*47 FILLER_0_0_37
*48 FILLER_0_10_18
*49 FILLER_0_10_26
*50 FILLER_0_10_29
*51 FILLER_0_10_41
*52 FILLER_0_10_6
*53 FILLER_0_11_18
*54 FILLER_0_11_30
*55 FILLER_0_11_38
*56 FILLER_0_11_46
*57 FILLER_0_11_6
*58 FILLER_0_12_13
*59 FILLER_0_12_25
*60 FILLER_0_12_29
*61 FILLER_0_12_37
*62 FILLER_0_1_15
*63 FILLER_0_1_27
*64 FILLER_0_1_3
*65 FILLER_0_1_47
*66 FILLER_0_2_18
*67 FILLER_0_2_26
*68 FILLER_0_2_29
*69 FILLER_0_2_41
*70 FILLER_0_2_47
*71 FILLER_0_2_6
*72 FILLER_0_3_17
*73 FILLER_0_3_3
*74 FILLER_0_3_36
*75 FILLER_0_4_15
*76 FILLER_0_4_29
*77 FILLER_0_4_3
*78 FILLER_0_4_37
*79 FILLER_0_4_45
*80 FILLER_0_5_13
*81 FILLER_0_5_19
*82 FILLER_0_5_27
*83 FILLER_0_5_39
*84 FILLER_0_5_43
*85 FILLER_0_6_13
*86 FILLER_0_6_3
*87 FILLER_0_6_36
*88 FILLER_0_7_15
*89 FILLER_0_7_3
*90 FILLER_0_7_34
*91 FILLER_0_7_40
*92 FILLER_0_8_18
*93 FILLER_0_8_26
*94 FILLER_0_8_29
*95 FILLER_0_8_41
*96 FILLER_0_8_6
*97 FILLER_0_9_15
*98 FILLER_0_9_23
*99 FILLER_0_9_27
*100 FILLER_0_9_3
*101 FILLER_0_9_36
*102 PHY_EDGE_ROW_0_Left_13
*103 PHY_EDGE_ROW_0_Right_0
*104 PHY_EDGE_ROW_10_Left_23
*105 PHY_EDGE_ROW_10_Right_10
*106 PHY_EDGE_ROW_11_Left_24
*107 PHY_EDGE_ROW_11_Right_11
*108 PHY_EDGE_ROW_12_Left_25
*109 PHY_EDGE_ROW_12_Right_12
*110 PHY_EDGE_ROW_1_Left_14
*111 PHY_EDGE_ROW_1_Right_1
*112 PHY_EDGE_ROW_2_Left_15
*113 PHY_EDGE_ROW_2_Right_2
*114 PHY_EDGE_ROW_3_Left_16
*115 PHY_EDGE_ROW_3_Right_3
*116 PHY_EDGE_ROW_4_Left_17
*117 PHY_EDGE_ROW_4_Right_4
*118 PHY_EDGE_ROW_5_Left_18
*119 PHY_EDGE_ROW_5_Right_5
*120 PHY_EDGE_ROW_6_Left_19
*121 PHY_EDGE_ROW_6_Right_6
*122 PHY_EDGE_ROW_7_Left_20
*123 PHY_EDGE_ROW_7_Right_7
*124 PHY_EDGE_ROW_8_Left_21
*125 PHY_EDGE_ROW_8_Right_8
*126 PHY_EDGE_ROW_9_Left_22
*127 PHY_EDGE_ROW_9_Right_9
*128 TAP_TAPCELL_ROW_0_26
*129 TAP_TAPCELL_ROW_10_31
*130 TAP_TAPCELL_ROW_12_32
*131 TAP_TAPCELL_ROW_2_27
*132 TAP_TAPCELL_ROW_4_28
*133 TAP_TAPCELL_ROW_6_29
*134 TAP_TAPCELL_ROW_8_30
*135 _09_
*136 _10_
*137 _11_
*138 _12_
*139 _13_
*140 _14_
*141 _15_
*142 _16_
*143 _17_
*144 _18_
*145 _19_
*146 _20_
*147 _21_
*148 _22_
*149 _23_
*150 _24_
*151 _25_
*152 input1
*153 input2
*154 input3
*155 input4
*156 input5
*157 input6
*158 input7
*159 input8
*160 output10
*161 output11
*162 output12
*163 output13
*164 output14
*165 output15
*166 output16
*167 output9

*PORTS
in[0] I
in[1] I
in[2] I
in[3] I
in[4] I
in[5] I
in[6] I
in[7] I
out[0] O
out[1] O
out[2] O
out[3] O
out[4] O
out[5] O
out[6] O
out[7] O

*D_NET *3 0.00124731
*CONN
*P in[0] I
*I *152:A I *D sky130_fd_sc_hd__buf_1
*CAP
1 in[0] 0.000623653
2 *152:A 0.000623653
3 *152:A *153:A 0
*RES
1 in[0] *152:A 11.9868 
*END

*D_NET *4 0.000583371
*CONN
*P in[1] I
*I *153:A I *D sky130_fd_sc_hd__dlymetal6s2s_1
*CAP
1 in[1] 0.000291686
2 *153:A 0.000291686
3 *153:A *154:A 0
4 *152:A *153:A 0
*RES
1 in[1] *153:A 7.0893 
*END

*D_NET *5 0.000531065
*CONN
*P in[2] I
*I *154:A I *D sky130_fd_sc_hd__buf_1
*CAP
1 in[2] 0.000265532
2 *154:A 0.000265532
3 *154:A *155:A 0
4 *153:A *154:A 0
*RES
1 in[2] *154:A 6.8343 
*END

*D_NET *6 0.000645774
*CONN
*P in[3] I
*I *155:A I *D sky130_fd_sc_hd__buf_1
*CAP
1 in[3] 0.000322887
2 *155:A 0.000322887
3 *155:A *156:A 0
4 *154:A *155:A 0
*RES
1 in[3] *155:A 7.8543 
*END

*D_NET *7 0.000535568
*CONN
*P in[4] I
*I *156:A I *D sky130_fd_sc_hd__dlymetal6s2s_1
*CAP
1 in[4] 0.000267784
2 *156:A 0.000267784
3 *156:A *157:A 0
4 *155:A *156:A 0
*RES
1 in[4] *156:A 6.8343 
*END

*D_NET *8 0.000523624
*CONN
*P in[5] I
*I *157:A I *D sky130_fd_sc_hd__buf_1
*CAP
1 in[5] 0.000261812
2 *157:A 0.000261812
3 *157:A *158:A 0
4 *156:A *157:A 0
*RES
1 in[5] *157:A 6.8343 
*END

*D_NET *9 0.000689875
*CONN
*P in[6] I
*I *158:A I *D sky130_fd_sc_hd__buf_1
*CAP
1 in[6] 0.000344938
2 *158:A 0.000344938
3 *158:A *159:A 0
4 *157:A *158:A 0
*RES
1 in[6] *158:A 8.27543 
*END

*D_NET *10 0.001043
*CONN
*P in[7] I
*I *159:A I *D sky130_fd_sc_hd__clkbuf_2
*CAP
1 in[7] 0.000521499
2 *159:A 0.000521499
3 *158:A *159:A 0
*RES
1 in[7] *159:A 10.26 
*END

*D_NET *11 0.00109227
*CONN
*P out[0] O
*I *167:X O *D sky130_fd_sc_hd__buf_2
*CAP
1 out[0] 0.000546133
2 *167:X 0.000546133
3 out[0] out[1] 0
*RES
1 *167:X out[0] 9.66983 
*END

*D_NET *12 0.000411239
*CONN
*P out[1] O
*I *160:X O *D sky130_fd_sc_hd__buf_2
*CAP
1 out[1] 0.00020562
2 *160:X 0.00020562
3 out[1] out[2] 0
4 out[0] out[1] 0
*RES
1 *160:X out[1] 4.84677 
*END

*D_NET *13 0.000410041
*CONN
*P out[2] O
*I *161:X O *D sky130_fd_sc_hd__buf_2
*CAP
1 out[2] 0.00020502
2 *161:X 0.00020502
3 out[2] out[3] 0
4 out[2] *167:A 0
5 out[1] out[2] 0
*RES
1 *161:X out[2] 4.84677 
*END

*D_NET *14 0.000545973
*CONN
*P out[3] O
*I *162:X O *D sky130_fd_sc_hd__buf_2
*CAP
1 out[3] 0.000250969
2 *162:X 0.000250969
3 out[3] out[4] 0
4 out[3] *42:87 4.40358e-05
5 out[2] out[3] 0
*RES
1 *162:X out[3] 5.86677 
*END

*D_NET *15 0.000413408
*CONN
*P out[4] O
*I *163:X O *D sky130_fd_sc_hd__buf_2
*CAP
1 out[4] 0.000200848
2 *163:X 0.000200848
3 out[4] out[5] 0
4 out[4] *164:A 1.17114e-05
5 out[3] out[4] 0
*RES
1 *163:X out[4] 4.84677 
*END

*D_NET *16 0.000549736
*CONN
*P out[5] O
*I *164:X O *D sky130_fd_sc_hd__buf_2
*CAP
1 out[5] 0.000253897
2 *164:X 0.000253897
3 out[5] out[6] 0
4 out[5] *166:A 4.19426e-05
5 out[4] out[5] 0
*RES
1 *164:X out[5] 5.86677 
*END

*D_NET *17 0.000710986
*CONN
*P out[6] O
*I *165:X O *D sky130_fd_sc_hd__buf_2
*CAP
1 out[6] 0.000355493
2 *165:X 0.000355493
3 out[6] out[7] 0
4 out[5] out[6] 0
*RES
1 *165:X out[6] 5.19637 
*END

*D_NET *18 0.000971234
*CONN
*P out[7] O
*I *166:X O *D sky130_fd_sc_hd__clkbuf_4
*CAP
1 out[7] 0.000485617
2 *166:X 0.000485617
3 out[6] out[7] 0
*RES
1 *166:X out[7] 10.1435 
*END

*D_NET *19 0.00355976
*CONN
*I *136:B I *D sky130_fd_sc_hd__xnor2_1
*I *135:Y O *D sky130_fd_sc_hd__nand2_1
*CAP
1 *136:B 0.000581918
2 *135:Y 0.000581918
3 *136:B *135:B 5.08304e-06
4 *136:B *136:A 0.0001576
5 *136:B *138:B 0.000430545
6 *136:B *139:A2 0.000236537
7 *136:B *139:A3 0.000161617
8 *136:B *140:B 0.000276191
9 *136:B *141:A 4.41506e-05
10 *136:B *141:D 2.8185e-05
11 *136:B *144:A1 0.000163293
12 *136:B *145:B 0.000242189
13 *136:B *161:A 0.000243931
14 *136:B *165:A 0.000101299
15 *136:B *166:A 0
16 *136:B *22:35 9.76407e-06
17 *136:B *28:18 0.000114679
18 *136:B *36:37 0.000108098
19 *136:B *37:14 2.49909e-05
20 *136:B *37:22 7.67415e-06
21 *136:B *42:63 4.00949e-05
*RES
1 *135:Y *136:B 25.05 
*END

*D_NET *20 0.00418017
*CONN
*I *138:B I *D sky130_fd_sc_hd__xnor2_1
*I *137:Y O *D sky130_fd_sc_hd__o21ai_1
*CAP
1 *138:B 0.000817184
2 *137:Y 0.000817184
3 *138:B *137:A2 3.00381e-05
4 *138:B *142:B 0.000382024
5 *138:B *143:A 8.40213e-05
6 *138:B *145:B 0.000486494
7 *138:B *161:A 0.00011809
8 *138:B *167:A 0.000196422
9 *138:B *28:8 1.03323e-05
10 *138:B *28:12 0.000671949
11 *138:B *28:18 0.000135887
12 *136:B *138:B 0.000430545
*RES
1 *137:Y *138:B 29.175 
*END

*D_NET *21 0.00237446
*CONN
*I *140:B I *D sky130_fd_sc_hd__xor2_1
*I *139:X O *D sky130_fd_sc_hd__o31a_1
*CAP
1 *140:B 0.000490245
2 *139:X 0.000490245
3 *140:B *161:A 0.00011686
4 *140:B *162:A 0.000271568
5 *140:B *163:A 0.000120431
6 *140:B *165:A 0.000119339
7 *140:B *28:31 0.000117453
8 *140:B *39:10 4.58257e-05
9 *140:B *42:40 0.000316799
10 *140:B *42:63 9.50342e-06
11 *136:B *140:B 0.000276191
*RES
1 *139:X *140:B 19.395 
*END

*D_NET *22 0.00798555
*CONN
*I *146:A3 I *D sky130_fd_sc_hd__o31a_1
*I *149:B_N I *D sky130_fd_sc_hd__and4bb_1
*I *144:A2 I *D sky130_fd_sc_hd__o21ai_1
*I *142:B I *D sky130_fd_sc_hd__nand2_1
*I *141:X O *D sky130_fd_sc_hd__or4_2
*CAP
1 *146:A3 0
2 *149:B_N 0.000360612
3 *144:A2 0.000148645
4 *142:B 0.000604588
5 *141:X 3.8682e-05
6 *22:50 0.000461941
7 *22:35 0.00060357
8 *22:6 0.000996866
9 *142:B *142:A 3.36005e-05
10 *142:B *143:B 0.000229536
11 *142:B *145:B 4.9968e-05
12 *142:B *148:A 0.000270415
13 *142:B *161:A 0.000175666
14 *142:B *162:A 6.86289e-05
15 *142:B *164:A 0.000153816
16 *142:B *167:A 0.000271341
17 *142:B *28:31 4.93879e-05
18 *142:B *42:87 4.94287e-05
19 *144:A2 *139:A2 0.000331367
20 *144:A2 *144:A1 3.09179e-05
21 *144:A2 *144:B1 4.82863e-05
22 *144:A2 *145:B 2.49909e-05
23 *144:A2 *166:A 0.000294414
24 *149:B_N *147:B 0.000313857
25 *149:B_N *28:31 4.90071e-05
26 *149:B_N *40:19 4.90071e-05
27 *149:B_N *42:29 0.000319508
28 *22:6 *141:A 5.83121e-06
29 *22:6 *28:18 1.91597e-05
30 *22:35 *139:A2 0.000495999
31 *22:35 *28:18 4.60123e-05
32 *22:35 *42:87 0.000474343
33 *22:50 *166:A 0.000187522
34 *22:50 *42:29 4.66108e-05
35 *22:50 *42:36 3.57349e-05
36 *22:50 *42:87 0.000254504
37 *136:B *22:35 9.76407e-06
38 *138:B *142:B 0.000382024
*RES
1 *141:X *22:6 2.05 
2 *22:6 *142:B 23.565 
3 *22:6 *22:35 10.235 
4 *22:35 *144:A2 8.67 
5 *22:35 *22:50 5.21 
6 *22:50 *149:B_N 12.53 
7 *22:50 *146:A3 1.6 
*END

*D_NET *23 0.00268867
*CONN
*I *143:B I *D sky130_fd_sc_hd__xnor2_1
*I *142:Y O *D sky130_fd_sc_hd__nand2_1
*CAP
1 *143:B 0.000428016
2 *142:Y 0.000428016
3 *143:B *148:A 9.63389e-05
4 *143:B *148:B 0.000288244
5 *143:B *37:14 0.000489371
6 *143:B *39:12 0.000203769
7 *143:B *40:19 0.000525385
8 *142:B *143:B 0.000229536
*RES
1 *142:Y *143:B 18.915 
*END

*D_NET *24 0.00348445
*CONN
*I *145:B I *D sky130_fd_sc_hd__xnor2_1
*I *144:Y O *D sky130_fd_sc_hd__o21ai_1
*CAP
1 *145:B 0.000567031
2 *144:Y 0.000567031
3 *145:B *139:A2 0.000893988
4 *145:B *144:B1 1.12578e-05
5 *145:B *145:A 8.23457e-05
6 *145:B *164:A 0.000266164
7 *145:B *165:A 0.000190039
8 *145:B *167:A 1.56428e-05
9 *145:B *42:63 4.82863e-05
10 *145:B *42:87 3.90266e-05
11 *136:B *145:B 0.000242189
12 *138:B *145:B 0.000486494
13 *142:B *145:B 4.9968e-05
14 *144:A2 *145:B 2.49909e-05
*RES
1 *144:Y *145:B 23.475 
*END

*D_NET *25 0.00226252
*CONN
*I *147:B I *D sky130_fd_sc_hd__xor2_1
*I *146:X O *D sky130_fd_sc_hd__o31a_1
*CAP
1 *147:B 0.000636959
2 *146:X 0.000636959
3 *147:B *139:A3 8.97564e-05
4 *147:B *140:A 0.000139561
5 *147:B *37:22 0.000110087
6 *147:B *38:10 1.98158e-05
7 *147:B *42:29 0.000315527
8 *149:B_N *147:B 0.000313857
*RES
1 *146:X *147:B 20.64 
*END

*D_NET *26 0.0051326
*CONN
*I *149:C I *D sky130_fd_sc_hd__and4bb_1
*I *148:Y O *D sky130_fd_sc_hd__nor2_1
*CAP
1 *149:C 0.0022965
2 *148:Y 0.0022965
3 *149:C *147:A 9.22294e-06
4 *149:C *148:B 6.06649e-05
5 *149:C *161:A 2.09527e-05
6 *149:C *165:A 0.000341884
7 *149:C *37:14 0.000106875
*RES
1 *148:Y *149:C 13.5241 
*END

*D_NET *27 0.000182772
*CONN
*I *150:A I *D sky130_fd_sc_hd__clkbuf_1
*I *149:X O *D sky130_fd_sc_hd__and4bb_1
*CAP
1 *150:A 6.724e-05
2 *149:X 6.724e-05
3 *150:A *42:14 4.82919e-05
*RES
1 *149:X *150:A 4.34 
*END

*D_NET *28 0.00705093
*CONN
*I *137:A1 I *D sky130_fd_sc_hd__o21ai_1
*I *151:A I *D sky130_fd_sc_hd__clkbuf_1
*I *139:A1 I *D sky130_fd_sc_hd__o31a_1
*I *135:A I *D sky130_fd_sc_hd__nand2_1
*I *141:A I *D sky130_fd_sc_hd__or4_2
*I *152:X O *D sky130_fd_sc_hd__buf_1
*CAP
1 *137:A1 0
2 *151:A 0
3 *139:A1 9.7622e-05
4 *135:A 1.66118e-05
5 *141:A 4.89428e-05
6 *152:X 0.00101787
7 *28:31 0.000410634
8 *28:18 0.000461746
9 *28:12 0.000304568
10 *28:8 0.00120603
11 *135:A *139:A3 4.99619e-05
12 *139:A1 *139:A3 8.75399e-05
13 *139:A1 *144:B1 4.00541e-06
14 *139:A1 *42:63 6.18671e-05
15 *28:8 *137:A2 9.66106e-05
16 *28:8 *36:20 7.10578e-05
17 *28:12 *137:B1 7.5431e-05
18 *28:12 *161:A 0.000507957
19 *28:12 *167:A 1.94723e-05
20 *28:12 *36:20 0
21 *28:18 *161:A 0.000198071
22 *28:31 *135:B 1.88904e-05
23 *28:31 *144:A1 9.48946e-05
24 *28:31 *161:A 5.52653e-05
25 *28:31 *162:A 0.000183151
26 *28:31 *163:A 0.000140912
27 *28:31 *40:10 4.7771e-05
28 *28:31 *40:19 0.000170148
29 *28:31 *42:40 0.000340047
30 *136:B *141:A 4.41506e-05
31 *136:B *28:18 0.000114679
32 *138:B *28:8 1.03323e-05
33 *138:B *28:12 0.000671949
34 *138:B *28:18 0.000135887
35 *140:B *28:31 0.000117453
36 *142:B *28:31 4.93879e-05
37 *149:B_N *28:31 4.90071e-05
38 *22:6 *141:A 5.83121e-06
39 *22:6 *28:18 1.91597e-05
40 *22:35 *28:18 4.60123e-05
*RES
1 *152:X *28:8 13.36 
2 *28:8 *28:12 10.265 
3 *28:12 *28:18 5.54 
4 *28:18 *141:A 2.395 
5 *28:18 *28:31 14.05 
6 *28:31 *135:A 2.05 
7 *28:31 *139:A1 3.805 
8 *28:12 *151:A 3.6 
9 *28:8 *137:A1 1.6 
*END

*D_NET *29 0.00268982
*CONN
*I *160:A I *D sky130_fd_sc_hd__buf_2
*I *136:Y O *D sky130_fd_sc_hd__xnor2_1
*CAP
1 *160:A 0.00101306
2 *136:Y 0.00101306
3 *160:A *136:A 9.50342e-06
4 *160:A *148:A 0.00026093
5 *160:A *36:12 0.000238137
6 *160:A *36:20 0.000155131
7 *160:A *38:10 0
*RES
1 *136:Y *160:A 25.2 
*END

*D_NET *30 0.00332454
*CONN
*I *161:A I *D sky130_fd_sc_hd__buf_2
*I *138:Y O *D sky130_fd_sc_hd__xnor2_1
*CAP
1 *161:A 0.000826309
2 *138:Y 0.000826309
3 *161:A *137:B1 7.89767e-05
4 *161:A *143:A 4.41506e-05
5 *161:A *148:B 0
6 *161:A *162:A 8.77811e-05
7 *161:A *163:A 2.42236e-05
8 *161:A *37:14 0
9 *136:B *161:A 0.000243931
10 *138:B *161:A 0.00011809
11 *140:B *161:A 0.00011686
12 *142:B *161:A 0.000175666
13 *149:C *161:A 2.09527e-05
14 *28:12 *161:A 0.000507957
15 *28:18 *161:A 0.000198071
16 *28:31 *161:A 5.52653e-05
*RES
1 *138:Y *161:A 26.01 
*END

*D_NET *31 0.00234801
*CONN
*I *162:A I *D sky130_fd_sc_hd__buf_2
*I *140:X O *D sky130_fd_sc_hd__xor2_1
*CAP
1 *162:A 0.000549638
2 *140:X 0.000549638
3 *162:A *148:B 0.000164686
4 *162:A *39:10 9.66021e-05
5 *162:A *40:19 0.000376314
6 *140:B *162:A 0.000271568
7 *142:B *162:A 6.86289e-05
8 *161:A *162:A 8.77811e-05
9 *28:31 *162:A 0.000183151
*RES
1 *140:X *162:A 19.845 
*END

*D_NET *32 0.000877417
*CONN
*I *163:A I *D sky130_fd_sc_hd__buf_2
*I *143:Y O *D sky130_fd_sc_hd__xnor2_1
*CAP
1 *163:A 0.000295925
2 *143:Y 0.000295925
3 *140:B *163:A 0.000120431
4 *161:A *163:A 2.42236e-05
5 *28:31 *163:A 0.000140912
*RES
1 *143:Y *163:A 12.045 
*END

*D_NET *33 0.00214867
*CONN
*I *164:A I *D sky130_fd_sc_hd__buf_2
*I *145:Y O *D sky130_fd_sc_hd__xnor2_1
*CAP
1 *164:A 0.000519813
2 *145:Y 0.000519813
3 *164:A *42:87 0.000677352
4 out[4] *164:A 1.17114e-05
5 *142:B *164:A 0.000153816
6 *145:B *164:A 0.000266164
*RES
1 *145:Y *164:A 18.855 
*END

*D_NET *34 0.00506258
*CONN
*I *165:A I *D sky130_fd_sc_hd__buf_2
*I *147:X O *D sky130_fd_sc_hd__xor2_1
*CAP
1 *165:A 0.00215501
2 *147:X 0.00215501
3 *165:A *166:A 0
4 *165:A *38:10 0
5 *136:B *165:A 0.000101299
6 *140:B *165:A 0.000119339
7 *145:B *165:A 0.000190039
8 *149:C *165:A 0.000341884
*RES
1 *147:X *165:A 13.785 
*END

*D_NET *35 0.00383661
*CONN
*I *166:A I *D sky130_fd_sc_hd__clkbuf_4
*I *150:X O *D sky130_fd_sc_hd__clkbuf_1
*CAP
1 *166:A 0.00128948
2 *150:X 0.00128948
3 *166:A *149:A_N 0.000273139
4 *166:A *42:14 4.21973e-05
5 *166:A *42:29 0.000406437
6 *166:A *42:87 1.19928e-05
7 out[5] *166:A 4.19426e-05
8 *136:B *166:A 0
9 *144:A2 *166:A 0.000294414
10 *165:A *166:A 0
11 *22:50 *166:A 0.000187522
*RES
1 *150:X *166:A 26.715 
*END

*D_NET *36 0.00800632
*CONN
*I *137:A2 I *D sky130_fd_sc_hd__o21ai_1
*I *139:A2 I *D sky130_fd_sc_hd__o31a_1
*I *141:B I *D sky130_fd_sc_hd__or4_2
*I *136:A I *D sky130_fd_sc_hd__xnor2_1
*I *153:X O *D sky130_fd_sc_hd__dlymetal6s2s_1
*CAP
1 *137:A2 5.3098e-05
2 *139:A2 0.000554824
3 *141:B 0
4 *136:A 0.000132173
5 *153:X 0.000686934
6 *36:37 0.000645815
7 *36:20 0.000561083
8 *36:12 0.00107795
9 *136:A *141:D 0.000164874
10 *136:A *148:A 7.20869e-05
11 *136:A *38:10 0
12 *139:A2 *139:A3 4.99619e-05
13 *139:A2 *42:63 4.82863e-05
14 *139:A2 *42:87 6.45317e-05
15 *36:12 *167:A 0
16 *36:20 *137:B1 0
17 *36:20 *148:A 0.000471968
18 *36:20 *37:14 0.000598661
19 *136:B *136:A 0.0001576
20 *136:B *139:A2 0.000236537
21 *136:B *36:37 0.000108098
22 *138:B *137:A2 3.00381e-05
23 *144:A2 *139:A2 0.000331367
24 *145:B *139:A2 0.000893988
25 *160:A *136:A 9.50342e-06
26 *160:A *36:12 0.000238137
27 *160:A *36:20 0.000155131
28 *22:35 *139:A2 0.000495999
29 *28:8 *137:A2 9.66106e-05
30 *28:8 *36:20 7.10578e-05
31 *28:12 *36:20 0
*RES
1 *153:X *36:12 16.565 
2 *36:12 *36:20 14.935 
3 *36:20 *136:A 8.75 
4 *36:20 *36:37 1.14 
5 *36:37 *141:B 1.6 
6 *36:37 *139:A2 20.63 
7 *36:12 *137:A2 3.085 
*END

*D_NET *37 0.00662934
*CONN
*I *141:C I *D sky130_fd_sc_hd__or4_2
*I *138:A I *D sky130_fd_sc_hd__xnor2_1
*I *139:A3 I *D sky130_fd_sc_hd__o31a_1
*I *154:X O *D sky130_fd_sc_hd__buf_1
*CAP
1 *141:C 0
2 *138:A 0
3 *139:A3 0.000674206
4 *154:X 0.00104459
5 *37:22 0.0011036
6 *37:14 0.00147398
7 *139:A3 *144:A1 0.000112631
8 *139:A3 *144:B1 9.53428e-06
9 *139:A3 *39:18 0
10 *139:A3 *42:63 9.80943e-06
11 *37:14 *137:B1 0
12 *37:14 *148:A 3.5208e-05
13 *37:14 *148:B 3.4222e-05
14 *37:22 *140:A 0.000117832
15 *37:22 *141:D 0.000237249
16 *37:22 *148:A 0
17 *37:22 *39:12 0
18 *37:22 *39:18 0
19 *135:A *139:A3 4.99619e-05
20 *136:B *139:A3 0.000161617
21 *136:B *37:14 2.49909e-05
22 *136:B *37:22 7.67415e-06
23 *139:A1 *139:A3 8.75399e-05
24 *139:A2 *139:A3 4.99619e-05
25 *143:B *37:14 0.000489371
26 *147:B *139:A3 8.97564e-05
27 *147:B *37:22 0.000110087
28 *149:C *37:14 0.000106875
29 *161:A *37:14 0
30 *36:20 *37:14 0.000598661
*RES
1 *154:X *37:14 22.535 
2 *37:14 *37:22 9.155 
3 *37:22 *139:A3 16.155 
4 *37:22 *138:A 3.6 
5 *37:14 *141:C 1.6 
*END

*D_NET *38 0.0025259
*CONN
*I *141:D I *D sky130_fd_sc_hd__or4_2
*I *140:A I *D sky130_fd_sc_hd__xor2_1
*I *155:X O *D sky130_fd_sc_hd__buf_1
*CAP
1 *141:D 7.0626e-05
2 *140:A 4.4203e-05
3 *155:X 0.000794361
4 *38:10 0.000909191
5 *140:A *148:A 0
6 *136:A *141:D 0.000164874
7 *136:A *38:10 0
8 *136:B *141:D 2.8185e-05
9 *147:B *140:A 0.000139561
10 *147:B *38:10 1.98158e-05
11 *160:A *38:10 0
12 *165:A *38:10 0
13 *37:22 *140:A 0.000117832
14 *37:22 *141:D 0.000237249
*RES
1 *155:X *38:10 13.5 
2 *38:10 *140:A 5.235 
3 *38:10 *141:D 6.12 
*END

*D_NET *39 0.00658954
*CONN
*I *148:A I *D sky130_fd_sc_hd__nor2_1
*I *143:A I *D sky130_fd_sc_hd__xnor2_1
*I *146:A1 I *D sky130_fd_sc_hd__o31a_1
*I *144:A1 I *D sky130_fd_sc_hd__o21ai_1
*I *156:X O *D sky130_fd_sc_hd__dlymetal6s2s_1
*CAP
1 *148:A 0.000411702
2 *143:A 2.71951e-05
3 *146:A1 0
4 *144:A1 0.000706873
5 *156:X 0.000614936
6 *39:18 0.000821173
7 *39:12 0.000253225
8 *39:10 0.00113837
9 *144:A1 *144:B1 5.05437e-05
10 *144:A1 *40:10 9.044e-05
11 *144:A1 *40:19 4.13329e-05
12 *144:A1 *42:63 9.27255e-06
13 *148:A *142:A 0.000103546
14 *148:A *148:B 4.82919e-05
15 *148:A *42:87 2.30292e-05
16 *39:12 *40:19 1.15688e-05
17 *39:18 *40:19 0.000154994
18 *136:A *148:A 7.20869e-05
19 *136:B *144:A1 0.000163293
20 *138:B *143:A 8.40213e-05
21 *139:A3 *144:A1 0.000112631
22 *139:A3 *39:18 0
23 *140:A *148:A 0
24 *140:B *39:10 4.58257e-05
25 *142:B *148:A 0.000270415
26 *143:B *148:A 9.63389e-05
27 *143:B *39:12 0.000203769
28 *144:A2 *144:A1 3.09179e-05
29 *160:A *148:A 0.00026093
30 *161:A *143:A 4.41506e-05
31 *162:A *39:10 9.66021e-05
32 *28:31 *144:A1 9.48946e-05
33 *36:20 *148:A 0.000471968
34 *37:14 *148:A 3.5208e-05
35 *37:22 *148:A 0
36 *37:22 *39:12 0
37 *37:22 *39:18 0
*RES
1 *156:X *39:10 12.345 
2 *39:10 *39:12 2.655 
3 *39:12 *39:18 2.445 
4 *39:18 *144:A1 14.7 
5 *39:18 *146:A1 3.6 
6 *39:12 *143:A 4.395 
7 *39:10 *148:A 15.135 
*END

*D_NET *40 0.00497391
*CONN
*I *148:B I *D sky130_fd_sc_hd__nor2_1
*I *145:A I *D sky130_fd_sc_hd__xnor2_1
*I *146:A2 I *D sky130_fd_sc_hd__o31a_1
*I *157:X O *D sky130_fd_sc_hd__buf_1
*CAP
1 *148:B 0.000136636
2 *145:A 7.50284e-05
3 *146:A2 0
4 *157:X 0.000923438
5 *40:19 0.000466663
6 *40:10 0.00117844
7 *148:B *142:A 4.82919e-05
8 *143:B *148:B 0.000288244
9 *143:B *40:19 0.000525385
10 *144:A1 *40:10 9.044e-05
11 *144:A1 *40:19 4.13329e-05
12 *145:B *145:A 8.23457e-05
13 *148:A *148:B 4.82919e-05
14 *149:B_N *40:19 4.90071e-05
15 *149:C *148:B 6.06649e-05
16 *161:A *148:B 0
17 *162:A *148:B 0.000164686
18 *162:A *40:19 0.000376314
19 *28:31 *40:10 4.7771e-05
20 *28:31 *40:19 0.000170148
21 *37:14 *148:B 3.4222e-05
22 *39:12 *40:19 1.15688e-05
23 *39:18 *40:19 0.000154994
*RES
1 *157:X *40:10 14.145 
2 *40:10 *146:A2 3.6 
3 *40:10 *40:19 8.775 
4 *40:19 *145:A 4.74 
5 *40:19 *148:B 8.235 
*END

*D_NET *41 0.00221096
*CONN
*I *147:A I *D sky130_fd_sc_hd__xor2_1
*I *149:A_N I *D sky130_fd_sc_hd__and4bb_1
*I *158:X O *D sky130_fd_sc_hd__buf_1
*CAP
1 *147:A 0.000409944
2 *149:A_N 4.80466e-05
3 *158:X 0.000283274
4 *41:10 0.000741265
5 *147:A *42:14 1.1561e-05
6 *149:A_N *42:14 4.77757e-05
7 *149:A_N *42:29 0.000133709
8 *41:10 *42:14 0.000253026
9 *149:C *147:A 9.22294e-06
10 *166:A *149:A_N 0.000273139
*RES
1 *158:X *41:10 9.255 
2 *41:10 *149:A_N 6.12 
3 *41:10 *147:A 10.08 
*END

*D_NET *42 0.00899883
*CONN
*I *137:B1 I *D sky130_fd_sc_hd__o21ai_1
*I *142:A I *D sky130_fd_sc_hd__nand2_1
*I *139:B1 I *D sky130_fd_sc_hd__o31a_1
*I *144:B1 I *D sky130_fd_sc_hd__o21ai_1
*I *135:B I *D sky130_fd_sc_hd__nand2_1
*I *146:B1 I *D sky130_fd_sc_hd__o31a_1
*I *149:D I *D sky130_fd_sc_hd__and4bb_1
*I *159:X O *D sky130_fd_sc_hd__clkbuf_2
*CAP
1 *137:B1 0.000165448
2 *142:A 0.000194313
3 *139:B1 0
4 *144:B1 3.59842e-05
5 *135:B 5.93792e-06
6 *146:B1 0
7 *149:D 0
8 *159:X 0.000326104
9 *42:87 0.00113251
10 *42:63 0.000229765
11 *42:40 0.000285802
12 *42:36 0.000883365
13 *42:29 0.000315111
14 *42:14 0.000616684
15 *42:87 *167:A 0.000137769
16 out[3] *42:87 4.40358e-05
17 *136:B *135:B 5.08304e-06
18 *136:B *42:63 4.00949e-05
19 *139:A1 *144:B1 4.00541e-06
20 *139:A1 *42:63 6.18671e-05
21 *139:A2 *42:63 4.82863e-05
22 *139:A2 *42:87 6.45317e-05
23 *139:A3 *144:B1 9.53428e-06
24 *139:A3 *42:63 9.80943e-06
25 *140:B *42:40 0.000316799
26 *140:B *42:63 9.50342e-06
27 *142:B *142:A 3.36005e-05
28 *142:B *42:87 4.94287e-05
29 *144:A1 *144:B1 5.05437e-05
30 *144:A1 *42:63 9.27255e-06
31 *144:A2 *144:B1 4.82863e-05
32 *145:B *144:B1 1.12578e-05
33 *145:B *42:63 4.82863e-05
34 *145:B *42:87 3.90266e-05
35 *147:A *42:14 1.1561e-05
36 *147:B *42:29 0.000315527
37 *148:A *142:A 0.000103546
38 *148:A *42:87 2.30292e-05
39 *148:B *142:A 4.82919e-05
40 *149:A_N *42:14 4.77757e-05
41 *149:A_N *42:29 0.000133709
42 *149:B_N *42:29 0.000319508
43 *150:A *42:14 4.82919e-05
44 *161:A *137:B1 7.89767e-05
45 *164:A *42:87 0.000677352
46 *166:A *42:14 4.21973e-05
47 *166:A *42:29 0.000406437
48 *166:A *42:87 1.19928e-05
49 *22:35 *42:87 0.000474343
50 *22:50 *42:29 4.66108e-05
51 *22:50 *42:36 3.57349e-05
52 *22:50 *42:87 0.000254504
53 *28:12 *137:B1 7.5431e-05
54 *28:31 *135:B 1.88904e-05
55 *28:31 *42:40 0.000340047
56 *36:20 *137:B1 0
57 *37:14 *137:B1 0
58 *41:10 *42:14 0.000253026
*RES
1 *159:X *42:14 12.815 
2 *42:14 *149:D 1.6 
3 *42:14 *42:29 9.66 
4 *42:29 *146:B1 1.6 
5 *42:29 *42:36 0.45 
6 *42:36 *42:40 6.0575 
7 *42:40 *135:B 3.8325 
8 *42:40 *42:63 5.5925 
9 *42:63 *144:B1 2.755 
10 *42:63 *139:B1 1.6 
11 *42:36 *42:87 22.675 
12 *42:87 *142:A 4.825 
13 *42:87 *137:B1 9.275 
*END

*D_NET *43 0.00151757
*CONN
*I *167:A I *D sky130_fd_sc_hd__buf_2
*I *151:X O *D sky130_fd_sc_hd__clkbuf_1
*CAP
1 *167:A 0.000438462
2 *151:X 0.000438462
3 out[2] *167:A 0
4 *138:B *167:A 0.000196422
5 *142:B *167:A 0.000271341
6 *145:B *167:A 1.56428e-05
7 *28:12 *167:A 1.94723e-05
8 *36:12 *167:A 0
9 *42:87 *167:A 0.000137769
*RES
1 *151:X *167:A 17.19 
*END
