*SPEF "ieee 1481-1999"
*DESIGN "project1"
*DATE "16:46:57 Saturday April 26, 2025"
*VENDOR "The OpenROAD Project"
*PROGRAM "OpenROAD"
*VERSION "b16bda7e82721d10566ff7e2b68f1ff0be9f9e38"
*DESIGN_FLOW "NAME_SCOPE LOCAL" "PIN_CAP NONE"
*DIVIDER /
*DELIMITER :
*BUS_DELIMITER []
*T_UNIT 1 NS
*C_UNIT 1 PF
*R_UNIT 1 OHM
*L_UNIT 1 HENRY

*NAME_MAP
*3 in[0]
*4 in[1]
*5 in[2]
*6 in[3]
*7 in[4]
*8 in[5]
*9 in[6]
*10 in[7]
*11 out[0]
*12 out[1]
*13 out[2]
*14 out[3]
*15 out[4]
*16 out[5]
*17 out[6]
*18 out[7]
*19 _00_
*20 _01_
*21 _02_
*22 _03_
*23 _04_
*24 _05_
*25 _06_
*26 _07_
*27 _08_
*28 net1
*29 net10
*30 net11
*31 net12
*32 net13
*33 net14
*34 net15
*35 net16
*36 net2
*37 net3
*38 net4
*39 net5
*40 net6
*41 net7
*42 net8
*43 net9
*44 FILLER_0_0_10
*45 FILLER_0_0_22
*46 FILLER_0_0_29
*47 FILLER_0_0_37
*48 FILLER_0_10_18
*49 FILLER_0_10_26
*50 FILLER_0_10_29
*51 FILLER_0_10_41
*52 FILLER_0_10_6
*53 FILLER_0_11_18
*54 FILLER_0_11_30
*55 FILLER_0_11_38
*56 FILLER_0_11_46
*57 FILLER_0_11_6
*58 FILLER_0_12_13
*59 FILLER_0_12_25
*60 FILLER_0_12_29
*61 FILLER_0_12_37
*62 FILLER_0_1_15
*63 FILLER_0_1_27
*64 FILLER_0_1_3
*65 FILLER_0_1_47
*66 FILLER_0_2_18
*67 FILLER_0_2_26
*68 FILLER_0_2_29
*69 FILLER_0_2_41
*70 FILLER_0_2_47
*71 FILLER_0_2_6
*72 FILLER_0_3_17
*73 FILLER_0_3_3
*74 FILLER_0_3_36
*75 FILLER_0_4_15
*76 FILLER_0_4_29
*77 FILLER_0_4_3
*78 FILLER_0_4_37
*79 FILLER_0_4_45
*80 FILLER_0_5_13
*81 FILLER_0_5_19
*82 FILLER_0_5_27
*83 FILLER_0_5_39
*84 FILLER_0_5_43
*85 FILLER_0_6_13
*86 FILLER_0_6_3
*87 FILLER_0_6_36
*88 FILLER_0_7_15
*89 FILLER_0_7_3
*90 FILLER_0_7_34
*91 FILLER_0_7_40
*92 FILLER_0_8_18
*93 FILLER_0_8_26
*94 FILLER_0_8_29
*95 FILLER_0_8_41
*96 FILLER_0_8_6
*97 FILLER_0_9_15
*98 FILLER_0_9_23
*99 FILLER_0_9_27
*100 FILLER_0_9_3
*101 FILLER_0_9_36
*102 PHY_EDGE_ROW_0_Left_13
*103 PHY_EDGE_ROW_0_Right_0
*104 PHY_EDGE_ROW_10_Left_23
*105 PHY_EDGE_ROW_10_Right_10
*106 PHY_EDGE_ROW_11_Left_24
*107 PHY_EDGE_ROW_11_Right_11
*108 PHY_EDGE_ROW_12_Left_25
*109 PHY_EDGE_ROW_12_Right_12
*110 PHY_EDGE_ROW_1_Left_14
*111 PHY_EDGE_ROW_1_Right_1
*112 PHY_EDGE_ROW_2_Left_15
*113 PHY_EDGE_ROW_2_Right_2
*114 PHY_EDGE_ROW_3_Left_16
*115 PHY_EDGE_ROW_3_Right_3
*116 PHY_EDGE_ROW_4_Left_17
*117 PHY_EDGE_ROW_4_Right_4
*118 PHY_EDGE_ROW_5_Left_18
*119 PHY_EDGE_ROW_5_Right_5
*120 PHY_EDGE_ROW_6_Left_19
*121 PHY_EDGE_ROW_6_Right_6
*122 PHY_EDGE_ROW_7_Left_20
*123 PHY_EDGE_ROW_7_Right_7
*124 PHY_EDGE_ROW_8_Left_21
*125 PHY_EDGE_ROW_8_Right_8
*126 PHY_EDGE_ROW_9_Left_22
*127 PHY_EDGE_ROW_9_Right_9
*128 TAP_TAPCELL_ROW_0_26
*129 TAP_TAPCELL_ROW_10_31
*130 TAP_TAPCELL_ROW_12_32
*131 TAP_TAPCELL_ROW_2_27
*132 TAP_TAPCELL_ROW_4_28
*133 TAP_TAPCELL_ROW_6_29
*134 TAP_TAPCELL_ROW_8_30
*135 _09_
*136 _10_
*137 _11_
*138 _12_
*139 _13_
*140 _14_
*141 _15_
*142 _16_
*143 _17_
*144 _18_
*145 _19_
*146 _20_
*147 _21_
*148 _22_
*149 _23_
*150 _24_
*151 _25_
*152 input1
*153 input2
*154 input3
*155 input4
*156 input5
*157 input6
*158 input7
*159 input8
*160 output10
*161 output11
*162 output12
*163 output13
*164 output14
*165 output15
*166 output16
*167 output9

*PORTS
in[0] I
in[1] I
in[2] I
in[3] I
in[4] I
in[5] I
in[6] I
in[7] I
out[0] O
out[1] O
out[2] O
out[3] O
out[4] O
out[5] O
out[6] O
out[7] O

*D_NET *3 0.00134105
*CONN
*P in[0] I
*I *152:A I *D sky130_fd_sc_hd__buf_1
*CAP
1 in[0] 0.000670525
2 *152:A 0.000670525
3 *152:A *153:A 0
*RES
1 in[0] *152:A 26.6229 
*END

*D_NET *4 0.000633536
*CONN
*P in[1] I
*I *153:A I *D sky130_fd_sc_hd__dlymetal6s2s_1
*CAP
1 in[1] 0.000316768
2 *153:A 0.000316768
3 *153:A *154:A 0
4 *152:A *153:A 0
*RES
1 in[1] *153:A 20.7838 
*END

*D_NET *5 0.000572832
*CONN
*P in[2] I
*I *154:A I *D sky130_fd_sc_hd__buf_1
*CAP
1 in[2] 0.000286416
2 *154:A 0.000286416
3 *154:A *155:A 0
4 *153:A *154:A 0
*RES
1 in[2] *154:A 20.4803 
*END

*D_NET *6 0.000694675
*CONN
*P in[3] I
*I *155:A I *D sky130_fd_sc_hd__buf_1
*CAP
1 in[3] 0.000347337
2 *155:A 0.000347337
3 *155:A *156:A 0
4 *154:A *155:A 0
*RES
1 in[3] *155:A 21.6946 
*END

*D_NET *7 0.000578318
*CONN
*P in[4] I
*I *156:A I *D sky130_fd_sc_hd__dlymetal6s2s_1
*CAP
1 in[4] 0.000289159
2 *156:A 0.000289159
3 *156:A *157:A 0
4 *155:A *156:A 0
*RES
1 in[4] *156:A 20.4803 
*END

*D_NET *8 0.000563768
*CONN
*P in[5] I
*I *157:A I *D sky130_fd_sc_hd__buf_1
*CAP
1 in[5] 0.000281884
2 *157:A 0.000281884
3 *157:A *158:A 0
4 *156:A *157:A 0
*RES
1 in[5] *157:A 20.4803 
*END

*D_NET *9 0.00074403
*CONN
*P in[6] I
*I *158:A I *D sky130_fd_sc_hd__buf_1
*CAP
1 in[6] 0.000372015
2 *158:A 0.000372015
3 *158:A *159:A 0
4 *157:A *158:A 0
*RES
1 in[6] *158:A 22.1911 
*END

*D_NET *10 0.00111184
*CONN
*P in[7] I
*I *159:A I *D sky130_fd_sc_hd__clkbuf_2
*CAP
1 in[7] 0.000555919
2 *159:A 0.000555919
3 *158:A *159:A 0
*RES
1 in[7] *159:A 24.5699 
*END

*D_NET *11 0.00116601
*CONN
*P out[0] O
*I *167:X O *D sky130_fd_sc_hd__buf_2
*CAP
1 out[0] 0.000583005
2 *167:X 0.000583005
3 out[0] out[1] 0
*RES
1 *167:X out[0] 23.8754 
*END

*D_NET *12 0.000438356
*CONN
*P out[1] O
*I *160:X O *D sky130_fd_sc_hd__buf_2
*CAP
1 out[1] 0.000219178
2 *160:X 0.000219178
3 out[1] out[2] 0
4 out[0] out[1] 0
*RES
1 *160:X out[1] 18.1229 
*END

*D_NET *13 0.000437128
*CONN
*P out[2] O
*I *161:X O *D sky130_fd_sc_hd__buf_2
*CAP
1 out[2] 0.000218564
2 *161:X 0.000218564
3 out[2] out[3] 0
4 out[2] *167:A 0
5 out[1] out[2] 0
*RES
1 *161:X out[2] 18.1229 
*END

*D_NET *14 0.000584981
*CONN
*P out[3] O
*I *162:X O *D sky130_fd_sc_hd__buf_2
*CAP
1 out[3] 0.000271008
2 *162:X 0.000271008
3 out[3] out[4] 0
4 out[3] *42:87 4.29654e-05
5 out[2] out[3] 0
*RES
1 *162:X out[3] 19.3371 
*END

*D_NET *15 0.000440675
*CONN
*P out[4] O
*I *163:X O *D sky130_fd_sc_hd__buf_2
*CAP
1 out[4] 0.00021424
2 *163:X 0.00021424
3 out[4] out[5] 0
4 out[4] *164:A 1.21955e-05
5 out[3] out[4] 0
*RES
1 *163:X out[4] 18.1229 
*END

*D_NET *16 0.000590355
*CONN
*P out[5] O
*I *164:X O *D sky130_fd_sc_hd__buf_2
*CAP
1 out[5] 0.000274819
2 *164:X 0.000274819
3 out[5] out[6] 0
4 out[5] *35:20 4.07164e-05
5 out[4] out[5] 0
*RES
1 *164:X out[5] 19.3371 
*END

*D_NET *17 0.000760908
*CONN
*P out[6] O
*I *165:X O *D sky130_fd_sc_hd__buf_2
*CAP
1 out[6] 0.000380454
2 *165:X 0.000380454
3 out[6] out[7] 0
4 out[5] out[6] 0
*RES
1 *165:X out[6] 18.5553 
*END

*D_NET *18 0.00103775
*CONN
*P out[7] O
*I *166:X O *D sky130_fd_sc_hd__clkbuf_4
*CAP
1 out[7] 0.000518877
2 *166:X 0.000518877
3 out[6] out[7] 0
*RES
1 *166:X out[7] 24.4258 
*END

*D_NET *19 0.00396009
*CONN
*I *136:B I *D sky130_fd_sc_hd__xnor2_1
*I *135:Y O *D sky130_fd_sc_hd__nand2_1
*CAP
1 *136:B 0.000684161
2 *135:Y 0.000684161
3 *136:B *135:B 5.01876e-06
4 *136:B *136:A 0.000173859
5 *136:B *139:A2 0.000267794
6 *136:B *139:A3 0.000185817
7 *136:B *140:B 0.000284977
8 *136:B *141:A 4.58194e-05
9 *136:B *141:D 2.95726e-05
10 *136:B *144:A1 0.000187741
11 *136:B *145:B 0.000249426
12 *136:B *161:A 0.000259421
13 *136:B *165:A 0.000105989
14 *136:B *20:20 0.000465257
15 *136:B *22:35 9.35114e-06
16 *136:B *28:18 0.000121248
17 *136:B *35:20 0
18 *136:B *36:37 0.000123617
19 *136:B *37:14 2.59355e-05
20 *136:B *37:22 7.48301e-06
21 *136:B *42:63 4.34472e-05
*RES
1 *135:Y *136:B 48.85 
*END

*D_NET *20 0.0046001
*CONN
*I *138:B I *D sky130_fd_sc_hd__xnor2_1
*I *137:Y O *D sky130_fd_sc_hd__o21ai_1
*CAP
1 *138:B 0
2 *137:Y 0.000929928
3 *20:20 0.000929928
4 *20:20 *137:A2 3.18676e-05
5 *20:20 *142:B 0.00041304
6 *20:20 *143:A 9.60875e-05
7 *20:20 *145:B 0.000524011
8 *20:20 *161:A 0.000124579
9 *20:20 *167:A 0.000202825
10 *20:20 *28:8 9.99644e-06
11 *20:20 *28:12 0.000726257
12 *20:20 *28:18 0.000146319
13 *136:B *20:20 0.000465257
*RES
1 *137:Y *20:20 44.4607 
2 *20:20 *138:B 9.3 
*END

*D_NET *21 0.00261993
*CONN
*I *140:B I *D sky130_fd_sc_hd__xor2_1
*I *139:X O *D sky130_fd_sc_hd__o31a_1
*CAP
1 *140:B 0.000560382
2 *139:X 0.000560382
3 *140:B *161:A 0.000126446
4 *140:B *162:A 0.000310907
5 *140:B *163:A 0.000129195
6 *140:B *165:A 0.000124816
7 *140:B *28:31 0.000121231
8 *140:B *39:10 4.88546e-05
9 *140:B *42:40 0.000342488
10 *140:B *42:63 1.02504e-05
11 *136:B *140:B 0.000284977
*RES
1 *139:X *140:B 42.1179 
*END

*D_NET *22 0.00895469
*CONN
*I *146:A3 I *D sky130_fd_sc_hd__o31a_1
*I *149:B_N I *D sky130_fd_sc_hd__and4bb_1
*I *144:A2 I *D sky130_fd_sc_hd__o21ai_1
*I *142:B I *D sky130_fd_sc_hd__nand2_1
*I *141:X O *D sky130_fd_sc_hd__or4_2
*CAP
1 *146:A3 0
2 *149:B_N 0.000399357
3 *144:A2 0.000173747
4 *142:B 0.000702641
5 *141:X 4.53842e-05
6 *22:50 0.000522871
7 *22:35 0.000711046
8 *22:6 0.00116181
9 *142:B *142:A 3.53387e-05
10 *142:B *143:B 0.000262498
11 *142:B *145:B 5.41794e-05
12 *142:B *148:A 0.000309266
13 *142:B *161:A 0.000190547
14 *142:B *162:A 6.9911e-05
15 *142:B *164:A 0.000175892
16 *142:B *167:A 0.000293422
17 *142:B *28:31 5.37664e-05
18 *142:B *42:87 5.035e-05
19 *144:A2 *139:A2 0.000357924
20 *144:A2 *144:A1 3.30352e-05
21 *144:A2 *144:B1 5.52238e-05
22 *144:A2 *145:B 2.59355e-05
23 *144:A2 *35:20 0.000318309
24 *149:B_N *147:B 0.000358977
25 *149:B_N *28:31 5.31158e-05
26 *149:B_N *40:19 5.31158e-05
27 *149:B_N *42:29 0.000360734
28 *22:6 *141:A 6.05161e-06
29 *22:6 *28:18 1.98839e-05
30 *22:35 *139:A2 0.000535036
31 *22:35 *28:18 4.82947e-05
32 *22:35 *42:87 0.000512615
33 *22:50 *35:20 0.000196322
34 *22:50 *42:29 5.33005e-05
35 *22:50 *42:36 4.08637e-05
36 *22:50 *42:87 0.000291535
37 *136:B *22:35 9.35114e-06
38 *20:20 *142:B 0.00041304
*RES
1 *141:X *22:6 9.83571 
2 *22:6 *142:B 43.925 
3 *22:6 *22:35 14.3036 
4 *22:35 *144:A2 19.8357 
5 *22:35 *22:50 8.32143 
6 *22:50 *149:B_N 26.55 
7 *22:50 *146:A3 9.3 
*END

*D_NET *23 0.00301394
*CONN
*I *143:B I *D sky130_fd_sc_hd__xnor2_1
*I *142:Y O *D sky130_fd_sc_hd__nand2_1
*CAP
1 *143:B 0.000509616
2 *142:Y 0.000509616
3 *143:B *148:A 0.000102386
4 *143:B *148:B 0.000311488
5 *143:B *37:14 0.000529151
6 *143:B *39:12 0.000220455
7 *143:B *40:19 0.000568729
8 *142:B *143:B 0.000262498
*RES
1 *142:Y *143:B 41.5464 
*END

*D_NET *24 0.00386636
*CONN
*I *145:B I *D sky130_fd_sc_hd__xnor2_1
*I *144:Y O *D sky130_fd_sc_hd__o21ai_1
*CAP
1 *145:B 0.000665623
2 *144:Y 0.000665623
3 *145:B *139:A2 0.000966186
4 *145:B *144:B1 1.21289e-05
5 *145:B *145:A 9.41642e-05
6 *145:B *164:A 0.000304387
7 *145:B *165:A 0.000196154
8 *145:B *167:A 1.58163e-05
9 *145:B *42:63 5.52238e-05
10 *145:B *42:87 3.75052e-05
11 *136:B *145:B 0.000249426
12 *142:B *145:B 5.41794e-05
13 *144:A2 *145:B 2.59355e-05
14 *20:20 *145:B 0.000524011
*RES
1 *144:Y *145:B 46.975 
*END

*D_NET *25 0.00250482
*CONN
*I *147:B I *D sky130_fd_sc_hd__xor2_1
*I *146:X O *D sky130_fd_sc_hd__o31a_1
*CAP
1 *147:B 0.000702621
2 *146:X 0.000702621
3 *147:B *139:A3 9.24395e-05
4 *147:B *140:A 0.000151136
5 *147:B *37:22 0.000114594
6 *147:B *38:10 2.15339e-05
7 *147:B *42:29 0.000360894
8 *149:B_N *147:B 0.000358977
*RES
1 *146:X *147:B 43.6 
*END

*D_NET *26 0.0054987
*CONN
*I *149:C I *D sky130_fd_sc_hd__and4bb_1
*I *148:Y O *D sky130_fd_sc_hd__nor2_1
*CAP
1 *149:C 0.00247155
2 *148:Y 0.00247155
3 *149:C *147:A 9.14771e-06
4 *149:C *148:B 6.57026e-05
5 *149:C *161:A 1.99737e-05
6 *149:C *165:A 0.000349705
7 *149:C *37:14 0.000111082
*RES
1 *148:Y *149:C 46.543 
*END

*D_NET *27 0.000201443
*CONN
*I *150:A I *D sky130_fd_sc_hd__clkbuf_1
*I *149:X O *D sky130_fd_sc_hd__and4bb_1
*CAP
1 *150:A 7.31063e-05
2 *149:X 7.31063e-05
3 *150:A *42:14 5.52302e-05
*RES
1 *149:X *150:A 19.9571 
*END

*D_NET *28 0.00782058
*CONN
*I *137:A1 I *D sky130_fd_sc_hd__o21ai_1
*I *151:A I *D sky130_fd_sc_hd__clkbuf_1
*I *139:A1 I *D sky130_fd_sc_hd__o31a_1
*I *135:A I *D sky130_fd_sc_hd__nand2_1
*I *141:A I *D sky130_fd_sc_hd__or4_2
*I *152:X O *D sky130_fd_sc_hd__buf_1
*CAP
1 *137:A1 0
2 *151:A 0
3 *139:A1 0.000109285
4 *135:A 1.84286e-05
5 *141:A 5.75687e-05
6 *152:X 0.00114541
7 *28:31 0.000482664
8 *28:18 0.000555745
9 *28:12 0.000364546
10 *28:8 0.00136673
11 *135:A *139:A3 5.71472e-05
12 *139:A1 *139:A3 9.32278e-05
13 *139:A1 *144:B1 3.99614e-06
14 *139:A1 *42:63 6.94324e-05
15 *28:8 *137:A2 0.000102207
16 *28:8 *36:20 7.48091e-05
17 *28:12 *137:B1 7.39637e-05
18 *28:12 *161:A 0.000549023
19 *28:12 *167:A 1.91512e-05
20 *28:12 *36:20 0
21 *28:18 *161:A 0.000214519
22 *28:31 *135:B 2.04825e-05
23 *28:31 *144:A1 9.31055e-05
24 *28:31 *161:A 5.68538e-05
25 *28:31 *162:A 0.000198278
26 *28:31 *163:A 0.00015234
27 *28:31 *40:10 4.80563e-05
28 *28:31 *40:19 0.000173964
29 *28:31 *42:40 0.000367657
30 *136:B *141:A 4.58194e-05
31 *136:B *28:18 0.000121248
32 *140:B *28:31 0.000121231
33 *142:B *28:31 5.37664e-05
34 *149:B_N *28:31 5.31158e-05
35 *20:20 *28:8 9.99644e-06
36 *20:20 *28:12 0.000726257
37 *20:20 *28:18 0.000146319
38 *22:6 *141:A 6.05161e-06
39 *22:6 *28:18 1.98839e-05
40 *22:35 *28:18 4.82947e-05
*RES
1 *152:X *28:8 23.3 
2 *28:8 *28:12 14.3393 
3 *28:12 *28:18 8.71429 
4 *28:18 *141:A 10.2464 
5 *28:18 *28:31 20.9643 
6 *28:31 *135:A 9.83571 
7 *28:31 *139:A1 11.925 
8 *28:12 *151:A 13.8 
9 *28:8 *137:A1 9.3 
*END

*D_NET *29 0.00294491
*CONN
*I *160:A I *D sky130_fd_sc_hd__buf_2
*I *136:Y O *D sky130_fd_sc_hd__xnor2_1
*CAP
1 *160:A 0.0011203
2 *136:Y 0.0011203
3 *160:A *136:A 1.02504e-05
4 *160:A *148:A 0.000270054
5 *160:A *36:12 0.000272371
6 *160:A *36:20 0.000151628
7 *160:A *38:10 0
*RES
1 *136:Y *160:A 49.0286 
*END

*D_NET *30 0.00366755
*CONN
*I *161:A I *D sky130_fd_sc_hd__buf_2
*I *138:Y O *D sky130_fd_sc_hd__xnor2_1
*CAP
1 *161:A 0.000944177
2 *138:Y 0.000944177
3 *161:A *137:B1 8.16036e-05
4 *161:A *143:A 4.58194e-05
5 *161:A *148:B 0
6 *161:A *162:A 8.54625e-05
7 *161:A *163:A 2.49484e-05
8 *161:A *37:14 0
9 *136:B *161:A 0.000259421
10 *140:B *161:A 0.000126446
11 *142:B *161:A 0.000190547
12 *149:C *161:A 1.99737e-05
13 *20:20 *161:A 0.000124579
14 *28:12 *161:A 0.000549023
15 *28:18 *161:A 0.000214519
16 *28:31 *161:A 5.68538e-05
*RES
1 *138:Y *161:A 49.9929 
*END

*D_NET *31 0.00260699
*CONN
*I *162:A I *D sky130_fd_sc_hd__buf_2
*I *140:X O *D sky130_fd_sc_hd__xor2_1
*CAP
1 *162:A 0.000627483
2 *140:X 0.000627483
3 *162:A *148:B 0.000177948
4 *162:A *39:10 0.000102197
5 *162:A *40:19 0.000407318
6 *140:B *162:A 0.000310907
7 *142:B *162:A 6.9911e-05
8 *161:A *162:A 8.54625e-05
9 *28:31 *162:A 0.000198278
*RES
1 *140:X *162:A 42.6536 
*END

*D_NET *32 0.000982817
*CONN
*I *163:A I *D sky130_fd_sc_hd__buf_2
*I *143:Y O *D sky130_fd_sc_hd__xnor2_1
*CAP
1 *163:A 0.000338167
2 *143:Y 0.000338167
3 *140:B *163:A 0.000129195
4 *161:A *163:A 2.49484e-05
5 *28:31 *163:A 0.00015234
*RES
1 *143:Y *163:A 33.3679 
*END

*D_NET *33 0.00238989
*CONN
*I *164:A I *D sky130_fd_sc_hd__buf_2
*I *145:Y O *D sky130_fd_sc_hd__xnor2_1
*CAP
1 *164:A 0.000582799
2 *145:Y 0.000582799
3 *164:A *42:87 0.000731815
4 out[4] *164:A 1.21955e-05
5 *142:B *164:A 0.000175892
6 *145:B *164:A 0.000304387
*RES
1 *145:Y *164:A 41.475 
*END

*D_NET *34 0.00538572
*CONN
*I *165:A I *D sky130_fd_sc_hd__buf_2
*I *147:X O *D sky130_fd_sc_hd__xor2_1
*CAP
1 *165:A 0.00230453
2 *147:X 0.00230453
3 *165:A *35:20 0
4 *165:A *38:10 0
5 *136:B *165:A 0.000105989
6 *140:B *165:A 0.000124816
7 *145:B *165:A 0.000196154
8 *149:C *165:A 0.000349705
*RES
1 *147:X *165:A 46.8657 
*END

*D_NET *35 0.00432026
*CONN
*I *166:A I *D sky130_fd_sc_hd__clkbuf_4
*I *150:X O *D sky130_fd_sc_hd__clkbuf_1
*CAP
1 *166:A 0
2 *150:X 0.00147704
3 *35:20 0.00147704
4 *35:20 *149:A_N 0.000314547
5 *35:20 *42:14 4.43256e-05
6 *35:20 *42:29 0.000439825
7 *35:20 *42:87 1.21258e-05
8 out[5] *35:20 4.07164e-05
9 *136:B *35:20 0
10 *144:A2 *35:20 0.000318309
11 *165:A *35:20 0
12 *22:50 *35:20 0.000196322
*RES
1 *150:X *35:20 41.5321 
2 *35:20 *166:A 9.3 
*END

*D_NET *36 0.00886633
*CONN
*I *137:A2 I *D sky130_fd_sc_hd__o21ai_1
*I *139:A2 I *D sky130_fd_sc_hd__o31a_1
*I *141:B I *D sky130_fd_sc_hd__or4_2
*I *136:A I *D sky130_fd_sc_hd__xnor2_1
*I *153:X O *D sky130_fd_sc_hd__dlymetal6s2s_1
*CAP
1 *137:A2 5.85595e-05
2 *139:A2 0.000649855
3 *141:B 0
4 *136:A 0.000150807
5 *153:X 0.00074309
6 *36:37 0.000756918
7 *36:20 0.000645982
8 *36:12 0.00118976
9 *136:A *141:D 0.000188586
10 *136:A *148:A 7.80096e-05
11 *136:A *38:10 0
12 *139:A2 *139:A3 5.71472e-05
13 *139:A2 *42:63 5.52238e-05
14 *139:A2 *42:87 6.7257e-05
15 *36:12 *167:A 0
16 *36:20 *137:B1 0
17 *36:20 *148:A 0.000510172
18 *36:20 *37:14 0.00064741
19 *136:B *136:A 0.000173859
20 *136:B *139:A2 0.000267794
21 *136:B *36:37 0.000123617
22 *144:A2 *139:A2 0.000357924
23 *145:B *139:A2 0.000966186
24 *160:A *136:A 1.02504e-05
25 *160:A *36:12 0.000272371
26 *160:A *36:20 0.000151628
27 *20:20 *137:A2 3.18676e-05
28 *22:35 *139:A2 0.000535036
29 *28:8 *137:A2 0.000102207
30 *28:8 *36:20 7.48091e-05
31 *28:12 *36:20 0
*RES
1 *153:X *36:12 31.3536 
2 *36:12 *36:20 22.0179 
3 *36:20 *136:A 22.05 
4 *36:20 *36:37 1.35714 
5 *36:37 *141:B 9.3 
6 *36:37 *139:A2 36.1929 
7 *36:12 *137:A2 11.0679 
*END

*D_NET *37 0.00737601
*CONN
*I *141:C I *D sky130_fd_sc_hd__or4_2
*I *138:A I *D sky130_fd_sc_hd__xnor2_1
*I *139:A3 I *D sky130_fd_sc_hd__o31a_1
*I *154:X O *D sky130_fd_sc_hd__buf_1
*CAP
1 *141:C 0
2 *138:A 0
3 *139:A3 0.000743926
4 *154:X 0.00119042
5 *37:22 0.00123208
6 *37:14 0.00167858
7 *139:A3 *144:A1 0.000119203
8 *139:A3 *144:B1 1.04232e-05
9 *139:A3 *39:18 0
10 *139:A3 *42:63 1.02936e-05
11 *37:14 *137:B1 0
12 *37:14 *148:A 3.60244e-05
13 *37:14 *148:B 3.48235e-05
14 *37:22 *140:A 0.000127446
15 *37:22 *141:D 0.000271352
16 *37:22 *148:A 0
17 *37:22 *39:12 0
18 *37:22 *39:18 0
19 *135:A *139:A3 5.71472e-05
20 *136:B *139:A3 0.000185817
21 *136:B *37:14 2.59355e-05
22 *136:B *37:22 7.48301e-06
23 *139:A1 *139:A3 9.32278e-05
24 *139:A2 *139:A3 5.71472e-05
25 *143:B *37:14 0.000529151
26 *147:B *139:A3 9.24395e-05
27 *147:B *37:22 0.000114594
28 *149:C *37:14 0.000111082
29 *161:A *37:14 0
30 *36:20 *37:14 0.00064741
*RES
1 *154:X *37:14 38.4607 
2 *37:14 *37:22 13.0179 
3 *37:22 *139:A3 28.7464 
4 *37:22 *138:A 13.8 
5 *37:14 *141:C 9.3 
*END

*D_NET *38 0.00282951
*CONN
*I *141:D I *D sky130_fd_sc_hd__or4_2
*I *140:A I *D sky130_fd_sc_hd__xor2_1
*I *155:X O *D sky130_fd_sc_hd__buf_1
*CAP
1 *141:D 8.04298e-05
2 *140:A 5.23052e-05
3 *155:X 0.000887209
4 *38:10 0.00101994
5 *140:A *148:A 0
6 *136:A *141:D 0.000188586
7 *136:A *38:10 0
8 *136:B *141:D 2.95726e-05
9 *147:B *140:A 0.000151136
10 *147:B *38:10 2.15339e-05
11 *160:A *38:10 0
12 *165:A *38:10 0
13 *37:22 *140:A 0.000127446
14 *37:22 *141:D 0.000271352
*RES
1 *155:X *38:10 25.5857 
2 *38:10 *140:A 15.7464 
3 *38:10 *141:D 16.8 
*END

*D_NET *39 0.00731007
*CONN
*I *148:A I *D sky130_fd_sc_hd__nor2_1
*I *143:A I *D sky130_fd_sc_hd__xnor2_1
*I *146:A1 I *D sky130_fd_sc_hd__o31a_1
*I *144:A1 I *D sky130_fd_sc_hd__o21ai_1
*I *156:X O *D sky130_fd_sc_hd__dlymetal6s2s_1
*CAP
1 *148:A 0.000482366
2 *143:A 3.34506e-05
3 *146:A1 0
4 *144:A1 0.000799611
5 *156:X 0.000672703
6 *39:18 0.0009279
7 *39:12 0.000287876
8 *39:10 0.00128121
9 *144:A1 *144:B1 5.33334e-05
10 *144:A1 *40:10 9.80405e-05
11 *144:A1 *40:19 4.46843e-05
12 *144:A1 *42:63 9.22103e-06
13 *148:A *142:A 0.000108525
14 *148:A *148:B 5.52302e-05
15 *148:A *42:87 2.44318e-05
16 *39:12 *40:19 1.18064e-05
17 *39:18 *40:19 0.000167276
18 *136:A *148:A 7.80096e-05
19 *136:B *144:A1 0.000187741
20 *139:A3 *144:A1 0.000119203
21 *139:A3 *39:18 0
22 *140:A *148:A 0
23 *140:B *39:10 4.88546e-05
24 *142:B *148:A 0.000309266
25 *143:B *148:A 0.000102386
26 *143:B *39:12 0.000220455
27 *144:A2 *144:A1 3.30352e-05
28 *160:A *148:A 0.000270054
29 *161:A *143:A 4.58194e-05
30 *162:A *39:10 0.000102197
31 *20:20 *143:A 9.60875e-05
32 *28:31 *144:A1 9.31055e-05
33 *36:20 *148:A 0.000510172
34 *37:14 *148:A 3.60244e-05
35 *37:22 *148:A 0
36 *37:22 *39:12 0
37 *37:22 *39:18 0
*RES
1 *156:X *39:10 24.2107 
2 *39:10 *39:12 3.16071 
3 *39:12 *39:18 2.91071 
4 *39:18 *144:A1 27.0143 
5 *39:18 *146:A1 13.8 
6 *39:12 *143:A 14.7464 
7 *39:10 *148:A 27.5321 
*END

*D_NET *40 0.00556406
*CONN
*I *148:B I *D sky130_fd_sc_hd__nor2_1
*I *145:A I *D sky130_fd_sc_hd__xnor2_1
*I *146:A2 I *D sky130_fd_sc_hd__o31a_1
*I *157:X O *D sky130_fd_sc_hd__buf_1
*CAP
1 *148:B 0.000158402
2 *145:A 8.64659e-05
3 *146:A2 0
4 *157:X 0.00104466
5 *40:19 0.000553586
6 *40:10 0.00135337
7 *148:B *142:A 5.52302e-05
8 *143:B *148:B 0.000311488
9 *143:B *40:19 0.000568729
10 *144:A1 *40:10 9.80405e-05
11 *144:A1 *40:19 4.46843e-05
12 *145:B *145:A 9.41642e-05
13 *148:A *148:B 5.52302e-05
14 *149:B_N *40:19 5.31158e-05
15 *149:C *148:B 6.57026e-05
16 *161:A *148:B 0
17 *162:A *148:B 0.000177948
18 *162:A *40:19 0.000407318
19 *28:31 *40:10 4.80563e-05
20 *28:31 *40:19 0.000173964
21 *37:14 *148:B 3.48235e-05
22 *39:12 *40:19 1.18064e-05
23 *39:18 *40:19 0.000167276
*RES
1 *157:X *40:10 26.3536 
2 *40:10 *146:A2 13.8 
3 *40:10 *40:19 10.4464 
4 *40:19 *145:A 15.1571 
5 *40:19 *148:B 19.3179 
*END

*D_NET *41 0.00242806
*CONN
*I *147:A I *D sky130_fd_sc_hd__xor2_1
*I *149:A_N I *D sky130_fd_sc_hd__and4bb_1
*I *158:X O *D sky130_fd_sc_hd__buf_1
*CAP
1 *147:A 0.000445441
2 *149:A_N 5.35976e-05
3 *158:X 0.000317262
4 *41:10 0.000816301
5 *147:A *42:14 1.17968e-05
6 *149:A_N *42:14 5.49544e-05
7 *149:A_N *42:29 0.000143255
8 *41:10 *42:14 0.000261758
9 *149:C *147:A 9.14771e-06
10 *35:20 *149:A_N 0.000314547
*RES
1 *158:X *41:10 20.5321 
2 *41:10 *149:A_N 16.8 
3 *41:10 *147:A 21.5143 
*END

*D_NET *42 0.00995077
*CONN
*I *137:B1 I *D sky130_fd_sc_hd__o21ai_1
*I *142:A I *D sky130_fd_sc_hd__nand2_1
*I *139:B1 I *D sky130_fd_sc_hd__o31a_1
*I *144:B1 I *D sky130_fd_sc_hd__o21ai_1
*I *135:B I *D sky130_fd_sc_hd__nand2_1
*I *146:B1 I *D sky130_fd_sc_hd__o31a_1
*I *149:D I *D sky130_fd_sc_hd__and4bb_1
*I *159:X O *D sky130_fd_sc_hd__clkbuf_2
*CAP
1 *137:B1 0.000185343
2 *142:A 0.000217132
3 *139:B1 0
4 *144:B1 4.05811e-05
5 *135:B 7.14414e-06
6 *146:B1 0
7 *149:D 0
8 *159:X 0.000365735
9 *42:87 0.00128334
10 *42:63 0.000258987
11 *42:40 0.000328058
12 *42:36 0.00101181
13 *42:29 0.000352454
14 *42:14 0.000689753
15 *42:87 *167:A 0.00013438
16 out[3] *42:87 4.29654e-05
17 *136:B *135:B 5.01876e-06
18 *136:B *42:63 4.34472e-05
19 *139:A1 *144:B1 3.99614e-06
20 *139:A1 *42:63 6.94324e-05
21 *139:A2 *42:63 5.52238e-05
22 *139:A2 *42:87 6.7257e-05
23 *139:A3 *144:B1 1.04232e-05
24 *139:A3 *42:63 1.02936e-05
25 *140:B *42:40 0.000342488
26 *140:B *42:63 1.02504e-05
27 *142:B *142:A 3.53387e-05
28 *142:B *42:87 5.035e-05
29 *144:A1 *144:B1 5.33334e-05
30 *144:A1 *42:63 9.22103e-06
31 *144:A2 *144:B1 5.52238e-05
32 *145:B *144:B1 1.21289e-05
33 *145:B *42:63 5.52238e-05
34 *145:B *42:87 3.75052e-05
35 *147:A *42:14 1.17968e-05
36 *147:B *42:29 0.000360894
37 *148:A *142:A 0.000108525
38 *148:A *42:87 2.44318e-05
39 *148:B *142:A 5.52302e-05
40 *149:A_N *42:14 5.49544e-05
41 *149:A_N *42:29 0.000143255
42 *149:B_N *42:29 0.000360734
43 *150:A *42:14 5.52302e-05
44 *161:A *137:B1 8.16036e-05
45 *164:A *42:87 0.000731815
46 *22:35 *42:87 0.000512615
47 *22:50 *42:29 5.33005e-05
48 *22:50 *42:36 4.08637e-05
49 *22:50 *42:87 0.000291535
50 *28:12 *137:B1 7.39637e-05
51 *28:31 *135:B 2.04825e-05
52 *28:31 *42:40 0.000367657
53 *35:20 *42:14 4.43256e-05
54 *35:20 *42:29 0.000439825
55 *35:20 *42:87 1.21258e-05
56 *36:20 *137:B1 0
57 *37:14 *137:B1 0
58 *41:10 *42:14 0.000261758
*RES
1 *159:X *42:14 26.8893 
2 *42:14 *149:D 9.3 
3 *42:14 *42:29 11.5 
4 *42:29 *146:B1 9.3 
5 *42:29 *42:36 0.535714 
6 *42:36 *42:40 9.33036 
7 *42:40 *135:B 14.0768 
8 *42:40 *42:63 8.77679 
9 *42:63 *144:B1 10.675 
10 *42:63 *139:B1 9.3 
11 *42:36 *42:87 31.2321 
12 *42:87 *142:A 13.1393 
13 *42:87 *137:B1 22.675 
*END

*D_NET *43 0.00166591
*CONN
*I *167:A I *D sky130_fd_sc_hd__buf_2
*I *151:X O *D sky130_fd_sc_hd__clkbuf_1
*CAP
1 *167:A 0.000500158
2 *151:X 0.000500158
3 out[2] *167:A 0
4 *142:B *167:A 0.000293422
5 *145:B *167:A 1.58163e-05
6 *20:20 *167:A 0.000202825
7 *28:12 *167:A 1.91512e-05
8 *36:12 *167:A 0
9 *42:87 *167:A 0.00013438
*RES
1 *151:X *167:A 39.4929 
*END
